file 3133673 1596179291                                         
version 2
run General-0-20200731-14:52:06-182880
attr configname General
attr datetime 20200731-14:52:06
attr experiment General
attr inifile examples/evaluation_fattree1024/fat-tree-ibcc.ini
attr iterationvars ""
attr iterationvarsf ""
attr measurement ""
attr network ib_model.examples.evaluation_fattree1024.fat_tree_1024
attr processid 182880
attr repetition 0
attr replication #0
attr resultdir results
attr runnumber 0
attr seedset 0
param **.servers[0].srcLid 1
param **.servers[1].srcLid 2
param **.servers[2].srcLid 3
param **.servers[3].srcLid 4
param **.servers[4].srcLid 5
param **.servers[5].srcLid 6
param **.servers[6].srcLid 7
param **.servers[7].srcLid 8
param **.servers[8].srcLid 9
param **.servers[9].srcLid 10
param **.servers[10].srcLid 11
param **.servers[11].srcLid 12
param **.servers[12].srcLid 13
param **.servers[13].srcLid 14
param **.servers[14].srcLid 15
param **.servers[15].srcLid 16
param **.servers[16].srcLid 17
param **.servers[17].srcLid 18
param **.servers[18].srcLid 19
param **.servers[19].srcLid 20
param **.servers[20].srcLid 21
param **.servers[21].srcLid 22
param **.servers[22].srcLid 23
param **.servers[23].srcLid 24
param **.servers[24].srcLid 25
param **.servers[25].srcLid 26
param **.servers[26].srcLid 27
param **.servers[27].srcLid 28
param **.servers[28].srcLid 29
param **.servers[29].srcLid 30
param **.servers[30].srcLid 31
param **.servers[31].srcLid 32
param **.servers[32].srcLid 33
param **.servers[33].srcLid 34
param **.servers[34].srcLid 35
param **.servers[35].srcLid 36
param **.servers[36].srcLid 37
param **.servers[37].srcLid 38
param **.servers[38].srcLid 39
param **.servers[39].srcLid 40
param **.servers[40].srcLid 41
param **.servers[41].srcLid 42
param **.servers[42].srcLid 43
param **.servers[43].srcLid 44
param **.servers[44].srcLid 45
param **.servers[45].srcLid 46
param **.servers[46].srcLid 47
param **.servers[47].srcLid 48
param **.servers[48].srcLid 49
param **.servers[49].srcLid 50
param **.servers[50].srcLid 51
param **.servers[51].srcLid 52
param **.servers[52].srcLid 53
param **.servers[53].srcLid 54
param **.servers[54].srcLid 55
param **.servers[55].srcLid 56
param **.servers[56].srcLid 57
param **.servers[57].srcLid 58
param **.servers[58].srcLid 59
param **.servers[59].srcLid 60
param **.servers[60].srcLid 61
param **.servers[61].srcLid 62
param **.servers[62].srcLid 63
param **.servers[63].srcLid 64
param **.servers[64].srcLid 65
param **.servers[65].srcLid 66
param **.servers[66].srcLid 67
param **.servers[67].srcLid 68
param **.servers[68].srcLid 69
param **.servers[69].srcLid 70
param **.servers[70].srcLid 71
param **.servers[71].srcLid 72
param **.servers[72].srcLid 73
param **.servers[73].srcLid 74
param **.servers[74].srcLid 75
param **.servers[75].srcLid 76
param **.servers[76].srcLid 77
param **.servers[77].srcLid 78
param **.servers[78].srcLid 79
param **.servers[79].srcLid 80
param **.servers[80].srcLid 81
param **.servers[81].srcLid 82
param **.servers[82].srcLid 83
param **.servers[83].srcLid 84
param **.servers[84].srcLid 85
param **.servers[85].srcLid 86
param **.servers[86].srcLid 87
param **.servers[87].srcLid 88
param **.servers[88].srcLid 89
param **.servers[89].srcLid 90
param **.servers[90].srcLid 91
param **.servers[91].srcLid 92
param **.servers[92].srcLid 93
param **.servers[93].srcLid 94
param **.servers[94].srcLid 95
param **.servers[95].srcLid 96
param **.servers[96].srcLid 97
param **.servers[97].srcLid 98
param **.servers[98].srcLid 99
param **.servers[99].srcLid 100
param **.servers[100].srcLid 101
param **.servers[101].srcLid 102
param **.servers[102].srcLid 103
param **.servers[103].srcLid 104
param **.servers[104].srcLid 105
param **.servers[105].srcLid 106
param **.servers[106].srcLid 107
param **.servers[107].srcLid 108
param **.servers[108].srcLid 109
param **.servers[109].srcLid 110
param **.servers[110].srcLid 111
param **.servers[111].srcLid 112
param **.servers[112].srcLid 113
param **.servers[113].srcLid 114
param **.servers[114].srcLid 115
param **.servers[115].srcLid 116
param **.servers[116].srcLid 117
param **.servers[117].srcLid 118
param **.servers[118].srcLid 119
param **.servers[119].srcLid 120
param **.servers[120].srcLid 121
param **.servers[121].srcLid 122
param **.servers[122].srcLid 123
param **.servers[123].srcLid 124
param **.servers[124].srcLid 125
param **.servers[125].srcLid 126
param **.servers[126].srcLid 127
param **.servers[127].srcLid 128
param **.servers[128].srcLid 129
param **.servers[129].srcLid 130
param **.servers[130].srcLid 131
param **.servers[131].srcLid 132
param **.servers[132].srcLid 133
param **.servers[133].srcLid 134
param **.servers[134].srcLid 135
param **.servers[135].srcLid 136
param **.servers[136].srcLid 137
param **.servers[137].srcLid 138
param **.servers[138].srcLid 139
param **.servers[139].srcLid 140
param **.servers[140].srcLid 141
param **.servers[141].srcLid 142
param **.servers[142].srcLid 143
param **.servers[143].srcLid 144
param **.servers[144].srcLid 145
param **.servers[145].srcLid 146
param **.servers[146].srcLid 147
param **.servers[147].srcLid 148
param **.servers[148].srcLid 149
param **.servers[149].srcLid 150
param **.servers[150].srcLid 151
param **.servers[151].srcLid 152
param **.servers[152].srcLid 153
param **.servers[153].srcLid 154
param **.servers[154].srcLid 155
param **.servers[155].srcLid 156
param **.servers[156].srcLid 157
param **.servers[157].srcLid 158
param **.servers[158].srcLid 159
param **.servers[159].srcLid 160
param **.servers[160].srcLid 161
param **.servers[161].srcLid 162
param **.servers[162].srcLid 163
param **.servers[163].srcLid 164
param **.servers[164].srcLid 165
param **.servers[165].srcLid 166
param **.servers[166].srcLid 167
param **.servers[167].srcLid 168
param **.servers[168].srcLid 169
param **.servers[169].srcLid 170
param **.servers[170].srcLid 171
param **.servers[171].srcLid 172
param **.servers[172].srcLid 173
param **.servers[173].srcLid 174
param **.servers[174].srcLid 175
param **.servers[175].srcLid 176
param **.servers[176].srcLid 177
param **.servers[177].srcLid 178
param **.servers[178].srcLid 179
param **.servers[179].srcLid 180
param **.servers[180].srcLid 181
param **.servers[181].srcLid 182
param **.servers[182].srcLid 183
param **.servers[183].srcLid 184
param **.servers[184].srcLid 185
param **.servers[185].srcLid 186
param **.servers[186].srcLid 187
param **.servers[187].srcLid 188
param **.servers[188].srcLid 189
param **.servers[189].srcLid 190
param **.servers[190].srcLid 191
param **.servers[191].srcLid 192
param **.servers[192].srcLid 193
param **.servers[193].srcLid 194
param **.servers[194].srcLid 195
param **.servers[195].srcLid 196
param **.servers[196].srcLid 197
param **.servers[197].srcLid 198
param **.servers[198].srcLid 199
param **.servers[199].srcLid 200
param **.servers[200].srcLid 201
param **.servers[201].srcLid 202
param **.servers[202].srcLid 203
param **.servers[203].srcLid 204
param **.servers[204].srcLid 205
param **.servers[205].srcLid 206
param **.servers[206].srcLid 207
param **.servers[207].srcLid 208
param **.servers[208].srcLid 209
param **.servers[209].srcLid 210
param **.servers[210].srcLid 211
param **.servers[211].srcLid 212
param **.servers[212].srcLid 213
param **.servers[213].srcLid 214
param **.servers[214].srcLid 215
param **.servers[215].srcLid 216
param **.servers[216].srcLid 217
param **.servers[217].srcLid 218
param **.servers[218].srcLid 219
param **.servers[219].srcLid 220
param **.servers[220].srcLid 221
param **.servers[221].srcLid 222
param **.servers[222].srcLid 223
param **.servers[223].srcLid 224
param **.servers[224].srcLid 225
param **.servers[225].srcLid 226
param **.servers[226].srcLid 227
param **.servers[227].srcLid 228
param **.servers[228].srcLid 229
param **.servers[229].srcLid 230
param **.servers[230].srcLid 231
param **.servers[231].srcLid 232
param **.servers[232].srcLid 233
param **.servers[233].srcLid 234
param **.servers[234].srcLid 235
param **.servers[235].srcLid 236
param **.servers[236].srcLid 237
param **.servers[237].srcLid 238
param **.servers[238].srcLid 239
param **.servers[239].srcLid 240
param **.servers[240].srcLid 241
param **.servers[241].srcLid 242
param **.servers[242].srcLid 243
param **.servers[243].srcLid 244
param **.servers[244].srcLid 245
param **.servers[245].srcLid 246
param **.servers[246].srcLid 247
param **.servers[247].srcLid 248
param **.servers[248].srcLid 249
param **.servers[249].srcLid 250
param **.servers[250].srcLid 251
param **.servers[251].srcLid 252
param **.servers[252].srcLid 253
param **.servers[253].srcLid 254
param **.servers[254].srcLid 255
param **.servers[255].srcLid 256
param **.servers[256].srcLid 257
param **.servers[257].srcLid 258
param **.servers[258].srcLid 259
param **.servers[259].srcLid 260
param **.servers[260].srcLid 261
param **.servers[261].srcLid 262
param **.servers[262].srcLid 263
param **.servers[263].srcLid 264
param **.servers[264].srcLid 265
param **.servers[265].srcLid 266
param **.servers[266].srcLid 267
param **.servers[267].srcLid 268
param **.servers[268].srcLid 269
param **.servers[269].srcLid 270
param **.servers[270].srcLid 271
param **.servers[271].srcLid 272
param **.servers[272].srcLid 273
param **.servers[273].srcLid 274
param **.servers[274].srcLid 275
param **.servers[275].srcLid 276
param **.servers[276].srcLid 277
param **.servers[277].srcLid 278
param **.servers[278].srcLid 279
param **.servers[279].srcLid 280
param **.servers[280].srcLid 281
param **.servers[281].srcLid 282
param **.servers[282].srcLid 283
param **.servers[283].srcLid 284
param **.servers[284].srcLid 285
param **.servers[285].srcLid 286
param **.servers[286].srcLid 287
param **.servers[287].srcLid 288
param **.servers[288].srcLid 289
param **.servers[289].srcLid 290
param **.servers[290].srcLid 291
param **.servers[291].srcLid 292
param **.servers[292].srcLid 293
param **.servers[293].srcLid 294
param **.servers[294].srcLid 295
param **.servers[295].srcLid 296
param **.servers[296].srcLid 297
param **.servers[297].srcLid 298
param **.servers[298].srcLid 299
param **.servers[299].srcLid 300
param **.servers[300].srcLid 301
param **.servers[301].srcLid 302
param **.servers[302].srcLid 303
param **.servers[303].srcLid 304
param **.servers[304].srcLid 305
param **.servers[305].srcLid 306
param **.servers[306].srcLid 307
param **.servers[307].srcLid 308
param **.servers[308].srcLid 309
param **.servers[309].srcLid 310
param **.servers[310].srcLid 311
param **.servers[311].srcLid 312
param **.servers[312].srcLid 313
param **.servers[313].srcLid 314
param **.servers[314].srcLid 315
param **.servers[315].srcLid 316
param **.servers[316].srcLid 317
param **.servers[317].srcLid 318
param **.servers[318].srcLid 319
param **.servers[319].srcLid 320
param **.servers[320].srcLid 321
param **.servers[321].srcLid 322
param **.servers[322].srcLid 323
param **.servers[323].srcLid 324
param **.servers[324].srcLid 325
param **.servers[325].srcLid 326
param **.servers[326].srcLid 327
param **.servers[327].srcLid 328
param **.servers[328].srcLid 329
param **.servers[329].srcLid 330
param **.servers[330].srcLid 331
param **.servers[331].srcLid 332
param **.servers[332].srcLid 333
param **.servers[333].srcLid 334
param **.servers[334].srcLid 335
param **.servers[335].srcLid 336
param **.servers[336].srcLid 337
param **.servers[337].srcLid 338
param **.servers[338].srcLid 339
param **.servers[339].srcLid 340
param **.servers[340].srcLid 341
param **.servers[341].srcLid 342
param **.servers[342].srcLid 343
param **.servers[343].srcLid 344
param **.servers[344].srcLid 345
param **.servers[345].srcLid 346
param **.servers[346].srcLid 347
param **.servers[347].srcLid 348
param **.servers[348].srcLid 349
param **.servers[349].srcLid 350
param **.servers[350].srcLid 351
param **.servers[351].srcLid 352
param **.servers[352].srcLid 353
param **.servers[353].srcLid 354
param **.servers[354].srcLid 355
param **.servers[355].srcLid 356
param **.servers[356].srcLid 357
param **.servers[357].srcLid 358
param **.servers[358].srcLid 359
param **.servers[359].srcLid 360
param **.servers[360].srcLid 361
param **.servers[361].srcLid 362
param **.servers[362].srcLid 363
param **.servers[363].srcLid 364
param **.servers[364].srcLid 365
param **.servers[365].srcLid 366
param **.servers[366].srcLid 367
param **.servers[367].srcLid 368
param **.servers[368].srcLid 369
param **.servers[369].srcLid 370
param **.servers[370].srcLid 371
param **.servers[371].srcLid 372
param **.servers[372].srcLid 373
param **.servers[373].srcLid 374
param **.servers[374].srcLid 375
param **.servers[375].srcLid 376
param **.servers[376].srcLid 377
param **.servers[377].srcLid 378
param **.servers[378].srcLid 379
param **.servers[379].srcLid 380
param **.servers[380].srcLid 381
param **.servers[381].srcLid 382
param **.servers[382].srcLid 383
param **.servers[383].srcLid 384
param **.servers[384].srcLid 385
param **.servers[385].srcLid 386
param **.servers[386].srcLid 387
param **.servers[387].srcLid 388
param **.servers[388].srcLid 389
param **.servers[389].srcLid 390
param **.servers[390].srcLid 391
param **.servers[391].srcLid 392
param **.servers[392].srcLid 393
param **.servers[393].srcLid 394
param **.servers[394].srcLid 395
param **.servers[395].srcLid 396
param **.servers[396].srcLid 397
param **.servers[397].srcLid 398
param **.servers[398].srcLid 399
param **.servers[399].srcLid 400
param **.servers[400].srcLid 401
param **.servers[401].srcLid 402
param **.servers[402].srcLid 403
param **.servers[403].srcLid 404
param **.servers[404].srcLid 405
param **.servers[405].srcLid 406
param **.servers[406].srcLid 407
param **.servers[407].srcLid 408
param **.servers[408].srcLid 409
param **.servers[409].srcLid 410
param **.servers[410].srcLid 411
param **.servers[411].srcLid 412
param **.servers[412].srcLid 413
param **.servers[413].srcLid 414
param **.servers[414].srcLid 415
param **.servers[415].srcLid 416
param **.servers[416].srcLid 417
param **.servers[417].srcLid 418
param **.servers[418].srcLid 419
param **.servers[419].srcLid 420
param **.servers[420].srcLid 421
param **.servers[421].srcLid 422
param **.servers[422].srcLid 423
param **.servers[423].srcLid 424
param **.servers[424].srcLid 425
param **.servers[425].srcLid 426
param **.servers[426].srcLid 427
param **.servers[427].srcLid 428
param **.servers[428].srcLid 429
param **.servers[429].srcLid 430
param **.servers[430].srcLid 431
param **.servers[431].srcLid 432
param **.servers[432].srcLid 433
param **.servers[433].srcLid 434
param **.servers[434].srcLid 435
param **.servers[435].srcLid 436
param **.servers[436].srcLid 437
param **.servers[437].srcLid 438
param **.servers[438].srcLid 439
param **.servers[439].srcLid 440
param **.servers[440].srcLid 441
param **.servers[441].srcLid 442
param **.servers[442].srcLid 443
param **.servers[443].srcLid 444
param **.servers[444].srcLid 445
param **.servers[445].srcLid 446
param **.servers[446].srcLid 447
param **.servers[447].srcLid 448
param **.servers[448].srcLid 449
param **.servers[449].srcLid 450
param **.servers[450].srcLid 451
param **.servers[451].srcLid 452
param **.servers[452].srcLid 453
param **.servers[453].srcLid 454
param **.servers[454].srcLid 455
param **.servers[455].srcLid 456
param **.servers[456].srcLid 457
param **.servers[457].srcLid 458
param **.servers[458].srcLid 459
param **.servers[459].srcLid 460
param **.servers[460].srcLid 461
param **.servers[461].srcLid 462
param **.servers[462].srcLid 463
param **.servers[463].srcLid 464
param **.servers[464].srcLid 465
param **.servers[465].srcLid 466
param **.servers[466].srcLid 467
param **.servers[467].srcLid 468
param **.servers[468].srcLid 469
param **.servers[469].srcLid 470
param **.servers[470].srcLid 471
param **.servers[471].srcLid 472
param **.servers[472].srcLid 473
param **.servers[473].srcLid 474
param **.servers[474].srcLid 475
param **.servers[475].srcLid 476
param **.servers[476].srcLid 477
param **.servers[477].srcLid 478
param **.servers[478].srcLid 479
param **.servers[479].srcLid 480
param **.servers[480].srcLid 481
param **.servers[481].srcLid 482
param **.servers[482].srcLid 483
param **.servers[483].srcLid 484
param **.servers[484].srcLid 485
param **.servers[485].srcLid 486
param **.servers[486].srcLid 487
param **.servers[487].srcLid 488
param **.servers[488].srcLid 489
param **.servers[489].srcLid 490
param **.servers[490].srcLid 491
param **.servers[491].srcLid 492
param **.servers[492].srcLid 493
param **.servers[493].srcLid 494
param **.servers[494].srcLid 495
param **.servers[495].srcLid 496
param **.servers[496].srcLid 497
param **.servers[497].srcLid 498
param **.servers[498].srcLid 499
param **.servers[499].srcLid 500
param **.servers[500].srcLid 501
param **.servers[501].srcLid 502
param **.servers[502].srcLid 503
param **.servers[503].srcLid 504
param **.servers[504].srcLid 505
param **.servers[505].srcLid 506
param **.servers[506].srcLid 507
param **.servers[507].srcLid 508
param **.servers[508].srcLid 509
param **.servers[509].srcLid 510
param **.servers[510].srcLid 511
param **.servers[511].srcLid 512
param **.servers[512].srcLid 513
param **.servers[513].srcLid 514
param **.servers[514].srcLid 515
param **.servers[515].srcLid 516
param **.servers[516].srcLid 517
param **.servers[517].srcLid 518
param **.servers[518].srcLid 519
param **.servers[519].srcLid 520
param **.servers[520].srcLid 521
param **.servers[521].srcLid 522
param **.servers[522].srcLid 523
param **.servers[523].srcLid 524
param **.servers[524].srcLid 525
param **.servers[525].srcLid 526
param **.servers[526].srcLid 527
param **.servers[527].srcLid 528
param **.servers[528].srcLid 529
param **.servers[529].srcLid 530
param **.servers[530].srcLid 531
param **.servers[531].srcLid 532
param **.servers[532].srcLid 533
param **.servers[533].srcLid 534
param **.servers[534].srcLid 535
param **.servers[535].srcLid 536
param **.servers[536].srcLid 537
param **.servers[537].srcLid 538
param **.servers[538].srcLid 539
param **.servers[539].srcLid 540
param **.servers[540].srcLid 541
param **.servers[541].srcLid 542
param **.servers[542].srcLid 543
param **.servers[543].srcLid 544
param **.servers[544].srcLid 545
param **.servers[545].srcLid 546
param **.servers[546].srcLid 547
param **.servers[547].srcLid 548
param **.servers[548].srcLid 549
param **.servers[549].srcLid 550
param **.servers[550].srcLid 551
param **.servers[551].srcLid 552
param **.servers[552].srcLid 553
param **.servers[553].srcLid 554
param **.servers[554].srcLid 555
param **.servers[555].srcLid 556
param **.servers[556].srcLid 557
param **.servers[557].srcLid 558
param **.servers[558].srcLid 559
param **.servers[559].srcLid 560
param **.servers[560].srcLid 561
param **.servers[561].srcLid 562
param **.servers[562].srcLid 563
param **.servers[563].srcLid 564
param **.servers[564].srcLid 565
param **.servers[565].srcLid 566
param **.servers[566].srcLid 567
param **.servers[567].srcLid 568
param **.servers[568].srcLid 569
param **.servers[569].srcLid 570
param **.servers[570].srcLid 571
param **.servers[571].srcLid 572
param **.servers[572].srcLid 573
param **.servers[573].srcLid 574
param **.servers[574].srcLid 575
param **.servers[575].srcLid 576
param **.servers[576].srcLid 577
param **.servers[577].srcLid 578
param **.servers[578].srcLid 579
param **.servers[579].srcLid 580
param **.servers[580].srcLid 581
param **.servers[581].srcLid 582
param **.servers[582].srcLid 583
param **.servers[583].srcLid 584
param **.servers[584].srcLid 585
param **.servers[585].srcLid 586
param **.servers[586].srcLid 587
param **.servers[587].srcLid 588
param **.servers[588].srcLid 589
param **.servers[589].srcLid 590
param **.servers[590].srcLid 591
param **.servers[591].srcLid 592
param **.servers[592].srcLid 593
param **.servers[593].srcLid 594
param **.servers[594].srcLid 595
param **.servers[595].srcLid 596
param **.servers[596].srcLid 597
param **.servers[597].srcLid 598
param **.servers[598].srcLid 599
param **.servers[599].srcLid 600
param **.servers[600].srcLid 601
param **.servers[601].srcLid 602
param **.servers[602].srcLid 603
param **.servers[603].srcLid 604
param **.servers[604].srcLid 605
param **.servers[605].srcLid 606
param **.servers[606].srcLid 607
param **.servers[607].srcLid 608
param **.servers[608].srcLid 609
param **.servers[609].srcLid 610
param **.servers[610].srcLid 611
param **.servers[611].srcLid 612
param **.servers[612].srcLid 613
param **.servers[613].srcLid 614
param **.servers[614].srcLid 615
param **.servers[615].srcLid 616
param **.servers[616].srcLid 617
param **.servers[617].srcLid 618
param **.servers[618].srcLid 619
param **.servers[619].srcLid 620
param **.servers[620].srcLid 621
param **.servers[621].srcLid 622
param **.servers[622].srcLid 623
param **.servers[623].srcLid 624
param **.servers[624].srcLid 625
param **.servers[625].srcLid 626
param **.servers[626].srcLid 627
param **.servers[627].srcLid 628
param **.servers[628].srcLid 629
param **.servers[629].srcLid 630
param **.servers[630].srcLid 631
param **.servers[631].srcLid 632
param **.servers[632].srcLid 633
param **.servers[633].srcLid 634
param **.servers[634].srcLid 635
param **.servers[635].srcLid 636
param **.servers[636].srcLid 637
param **.servers[637].srcLid 638
param **.servers[638].srcLid 639
param **.servers[639].srcLid 640
param **.servers[640].srcLid 641
param **.servers[641].srcLid 642
param **.servers[642].srcLid 643
param **.servers[643].srcLid 644
param **.servers[644].srcLid 645
param **.servers[645].srcLid 646
param **.servers[646].srcLid 647
param **.servers[647].srcLid 648
param **.servers[648].srcLid 649
param **.servers[649].srcLid 650
param **.servers[650].srcLid 651
param **.servers[651].srcLid 652
param **.servers[652].srcLid 653
param **.servers[653].srcLid 654
param **.servers[654].srcLid 655
param **.servers[655].srcLid 656
param **.servers[656].srcLid 657
param **.servers[657].srcLid 658
param **.servers[658].srcLid 659
param **.servers[659].srcLid 660
param **.servers[660].srcLid 661
param **.servers[661].srcLid 662
param **.servers[662].srcLid 663
param **.servers[663].srcLid 664
param **.servers[664].srcLid 665
param **.servers[665].srcLid 666
param **.servers[666].srcLid 667
param **.servers[667].srcLid 668
param **.servers[668].srcLid 669
param **.servers[669].srcLid 670
param **.servers[670].srcLid 671
param **.servers[671].srcLid 672
param **.servers[672].srcLid 673
param **.servers[673].srcLid 674
param **.servers[674].srcLid 675
param **.servers[675].srcLid 676
param **.servers[676].srcLid 677
param **.servers[677].srcLid 678
param **.servers[678].srcLid 679
param **.servers[679].srcLid 680
param **.servers[680].srcLid 681
param **.servers[681].srcLid 682
param **.servers[682].srcLid 683
param **.servers[683].srcLid 684
param **.servers[684].srcLid 685
param **.servers[685].srcLid 686
param **.servers[686].srcLid 687
param **.servers[687].srcLid 688
param **.servers[688].srcLid 689
param **.servers[689].srcLid 690
param **.servers[690].srcLid 691
param **.servers[691].srcLid 692
param **.servers[692].srcLid 693
param **.servers[693].srcLid 694
param **.servers[694].srcLid 695
param **.servers[695].srcLid 696
param **.servers[696].srcLid 697
param **.servers[697].srcLid 698
param **.servers[698].srcLid 699
param **.servers[699].srcLid 700
param **.servers[700].srcLid 701
param **.servers[701].srcLid 702
param **.servers[702].srcLid 703
param **.servers[703].srcLid 704
param **.servers[704].srcLid 705
param **.servers[705].srcLid 706
param **.servers[706].srcLid 707
param **.servers[707].srcLid 708
param **.servers[708].srcLid 709
param **.servers[709].srcLid 710
param **.servers[710].srcLid 711
param **.servers[711].srcLid 712
param **.servers[712].srcLid 713
param **.servers[713].srcLid 714
param **.servers[714].srcLid 715
param **.servers[715].srcLid 716
param **.servers[716].srcLid 717
param **.servers[717].srcLid 718
param **.servers[718].srcLid 719
param **.servers[719].srcLid 720
param **.servers[720].srcLid 721
param **.servers[721].srcLid 722
param **.servers[722].srcLid 723
param **.servers[723].srcLid 724
param **.servers[724].srcLid 725
param **.servers[725].srcLid 726
param **.servers[726].srcLid 727
param **.servers[727].srcLid 728
param **.servers[728].srcLid 729
param **.servers[729].srcLid 730
param **.servers[730].srcLid 731
param **.servers[731].srcLid 732
param **.servers[732].srcLid 733
param **.servers[733].srcLid 734
param **.servers[734].srcLid 735
param **.servers[735].srcLid 736
param **.servers[736].srcLid 737
param **.servers[737].srcLid 738
param **.servers[738].srcLid 739
param **.servers[739].srcLid 740
param **.servers[740].srcLid 741
param **.servers[741].srcLid 742
param **.servers[742].srcLid 743
param **.servers[743].srcLid 744
param **.servers[744].srcLid 745
param **.servers[745].srcLid 746
param **.servers[746].srcLid 747
param **.servers[747].srcLid 748
param **.servers[748].srcLid 749
param **.servers[749].srcLid 750
param **.servers[750].srcLid 751
param **.servers[751].srcLid 752
param **.servers[752].srcLid 753
param **.servers[753].srcLid 754
param **.servers[754].srcLid 755
param **.servers[755].srcLid 756
param **.servers[756].srcLid 757
param **.servers[757].srcLid 758
param **.servers[758].srcLid 759
param **.servers[759].srcLid 760
param **.servers[760].srcLid 761
param **.servers[761].srcLid 762
param **.servers[762].srcLid 763
param **.servers[763].srcLid 764
param **.servers[764].srcLid 765
param **.servers[765].srcLid 766
param **.servers[766].srcLid 767
param **.servers[767].srcLid 768
param **.servers[768].srcLid 769
param **.servers[769].srcLid 770
param **.servers[770].srcLid 771
param **.servers[771].srcLid 772
param **.servers[772].srcLid 773
param **.servers[773].srcLid 774
param **.servers[774].srcLid 775
param **.servers[775].srcLid 776
param **.servers[776].srcLid 777
param **.servers[777].srcLid 778
param **.servers[778].srcLid 779
param **.servers[779].srcLid 780
param **.servers[780].srcLid 781
param **.servers[781].srcLid 782
param **.servers[782].srcLid 783
param **.servers[783].srcLid 784
param **.servers[784].srcLid 785
param **.servers[785].srcLid 786
param **.servers[786].srcLid 787
param **.servers[787].srcLid 788
param **.servers[788].srcLid 789
param **.servers[789].srcLid 790
param **.servers[790].srcLid 791
param **.servers[791].srcLid 792
param **.servers[792].srcLid 793
param **.servers[793].srcLid 794
param **.servers[794].srcLid 795
param **.servers[795].srcLid 796
param **.servers[796].srcLid 797
param **.servers[797].srcLid 798
param **.servers[798].srcLid 799
param **.servers[799].srcLid 800
param **.servers[800].srcLid 801
param **.servers[801].srcLid 802
param **.servers[802].srcLid 803
param **.servers[803].srcLid 804
param **.servers[804].srcLid 805
param **.servers[805].srcLid 806
param **.servers[806].srcLid 807
param **.servers[807].srcLid 808
param **.servers[808].srcLid 809
param **.servers[809].srcLid 810
param **.servers[810].srcLid 811
param **.servers[811].srcLid 812
param **.servers[812].srcLid 813
param **.servers[813].srcLid 814
param **.servers[814].srcLid 815
param **.servers[815].srcLid 816
param **.servers[816].srcLid 817
param **.servers[817].srcLid 818
param **.servers[818].srcLid 819
param **.servers[819].srcLid 820
param **.servers[820].srcLid 821
param **.servers[821].srcLid 822
param **.servers[822].srcLid 823
param **.servers[823].srcLid 824
param **.servers[824].srcLid 825
param **.servers[825].srcLid 826
param **.servers[826].srcLid 827
param **.servers[827].srcLid 828
param **.servers[828].srcLid 829
param **.servers[829].srcLid 830
param **.servers[830].srcLid 831
param **.servers[831].srcLid 832
param **.servers[832].srcLid 833
param **.servers[833].srcLid 834
param **.servers[834].srcLid 835
param **.servers[835].srcLid 836
param **.servers[836].srcLid 837
param **.servers[837].srcLid 838
param **.servers[838].srcLid 839
param **.servers[839].srcLid 840
param **.servers[840].srcLid 841
param **.servers[841].srcLid 842
param **.servers[842].srcLid 843
param **.servers[843].srcLid 844
param **.servers[844].srcLid 845
param **.servers[845].srcLid 846
param **.servers[846].srcLid 847
param **.servers[847].srcLid 848
param **.servers[848].srcLid 849
param **.servers[849].srcLid 850
param **.servers[850].srcLid 851
param **.servers[851].srcLid 852
param **.servers[852].srcLid 853
param **.servers[853].srcLid 854
param **.servers[854].srcLid 855
param **.servers[855].srcLid 856
param **.servers[856].srcLid 857
param **.servers[857].srcLid 858
param **.servers[858].srcLid 859
param **.servers[859].srcLid 860
param **.servers[860].srcLid 861
param **.servers[861].srcLid 862
param **.servers[862].srcLid 863
param **.servers[863].srcLid 864
param **.servers[864].srcLid 865
param **.servers[865].srcLid 866
param **.servers[866].srcLid 867
param **.servers[867].srcLid 868
param **.servers[868].srcLid 869
param **.servers[869].srcLid 870
param **.servers[870].srcLid 871
param **.servers[871].srcLid 872
param **.servers[872].srcLid 873
param **.servers[873].srcLid 874
param **.servers[874].srcLid 875
param **.servers[875].srcLid 876
param **.servers[876].srcLid 877
param **.servers[877].srcLid 878
param **.servers[878].srcLid 879
param **.servers[879].srcLid 880
param **.servers[880].srcLid 881
param **.servers[881].srcLid 882
param **.servers[882].srcLid 883
param **.servers[883].srcLid 884
param **.servers[884].srcLid 885
param **.servers[885].srcLid 886
param **.servers[886].srcLid 887
param **.servers[887].srcLid 888
param **.servers[888].srcLid 889
param **.servers[889].srcLid 890
param **.servers[890].srcLid 891
param **.servers[891].srcLid 892
param **.servers[892].srcLid 893
param **.servers[893].srcLid 894
param **.servers[894].srcLid 895
param **.servers[895].srcLid 896
param **.servers[896].srcLid 897
param **.servers[897].srcLid 898
param **.servers[898].srcLid 899
param **.servers[899].srcLid 900
param **.servers[900].srcLid 901
param **.servers[901].srcLid 902
param **.servers[902].srcLid 903
param **.servers[903].srcLid 904
param **.servers[904].srcLid 905
param **.servers[905].srcLid 906
param **.servers[906].srcLid 907
param **.servers[907].srcLid 908
param **.servers[908].srcLid 909
param **.servers[909].srcLid 910
param **.servers[910].srcLid 911
param **.servers[911].srcLid 912
param **.servers[912].srcLid 913
param **.servers[913].srcLid 914
param **.servers[914].srcLid 915
param **.servers[915].srcLid 916
param **.servers[916].srcLid 917
param **.servers[917].srcLid 918
param **.servers[918].srcLid 919
param **.servers[919].srcLid 920
param **.servers[920].srcLid 921
param **.servers[921].srcLid 922
param **.servers[922].srcLid 923
param **.servers[923].srcLid 924
param **.servers[924].srcLid 925
param **.servers[925].srcLid 926
param **.servers[926].srcLid 927
param **.servers[927].srcLid 928
param **.servers[928].srcLid 929
param **.servers[929].srcLid 930
param **.servers[930].srcLid 931
param **.servers[931].srcLid 932
param **.servers[932].srcLid 933
param **.servers[933].srcLid 934
param **.servers[934].srcLid 935
param **.servers[935].srcLid 936
param **.servers[936].srcLid 937
param **.servers[937].srcLid 938
param **.servers[938].srcLid 939
param **.servers[939].srcLid 940
param **.servers[940].srcLid 941
param **.servers[941].srcLid 942
param **.servers[942].srcLid 943
param **.servers[943].srcLid 944
param **.servers[944].srcLid 945
param **.servers[945].srcLid 946
param **.servers[946].srcLid 947
param **.servers[947].srcLid 948
param **.servers[948].srcLid 949
param **.servers[949].srcLid 950
param **.servers[950].srcLid 951
param **.servers[951].srcLid 952
param **.servers[952].srcLid 953
param **.servers[953].srcLid 954
param **.servers[954].srcLid 955
param **.servers[955].srcLid 956
param **.servers[956].srcLid 957
param **.servers[957].srcLid 958
param **.servers[958].srcLid 959
param **.servers[959].srcLid 960
param **.servers[960].srcLid 961
param **.servers[961].srcLid 962
param **.servers[962].srcLid 963
param **.servers[963].srcLid 964
param **.servers[964].srcLid 965
param **.servers[965].srcLid 966
param **.servers[966].srcLid 967
param **.servers[967].srcLid 968
param **.servers[968].srcLid 969
param **.servers[969].srcLid 970
param **.servers[970].srcLid 971
param **.servers[971].srcLid 972
param **.servers[972].srcLid 973
param **.servers[973].srcLid 974
param **.servers[974].srcLid 975
param **.servers[975].srcLid 976
param **.servers[976].srcLid 977
param **.servers[977].srcLid 978
param **.servers[978].srcLid 979
param **.servers[979].srcLid 980
param **.servers[980].srcLid 981
param **.servers[981].srcLid 982
param **.servers[982].srcLid 983
param **.servers[983].srcLid 984
param **.servers[984].srcLid 985
param **.servers[985].srcLid 986
param **.servers[986].srcLid 987
param **.servers[987].srcLid 988
param **.servers[988].srcLid 989
param **.servers[989].srcLid 990
param **.servers[990].srcLid 991
param **.servers[991].srcLid 992
param **.servers[992].srcLid 993
param **.servers[993].srcLid 994
param **.servers[994].srcLid 995
param **.servers[995].srcLid 996
param **.servers[996].srcLid 997
param **.servers[997].srcLid 998
param **.servers[998].srcLid 999
param **.servers[999].srcLid 1000
param **.servers[1000].srcLid 1001
param **.servers[1001].srcLid 1002
param **.servers[1002].srcLid 1003
param **.servers[1003].srcLid 1004
param **.servers[1004].srcLid 1005
param **.servers[1005].srcLid 1006
param **.servers[1006].srcLid 1007
param **.servers[1007].srcLid 1008
param **.servers[1008].srcLid 1009
param **.servers[1009].srcLid 1010
param **.servers[1010].srcLid 1011
param **.servers[1011].srcLid 1012
param **.servers[1012].srcLid 1013
param **.servers[1013].srcLid 1014
param **.servers[1014].srcLid 1015
param **.servers[1015].srcLid 1016
param **.servers[1016].srcLid 1017
param **.servers[1017].srcLid 1018
param **.servers[1018].srcLid 1019
param **.servers[1019].srcLid 1020
param **.servers[1020].srcLid 1021
param **.servers[1021].srcLid 1022
param **.servers[1022].srcLid 1023
param **.servers[1023].srcLid 1024
param **.flitSize 2048B
param **.width 4
param **.speed 10Gbps
param **.maxVL 1
param **.sink.hiccupDuration 0.001us
param **.sink.hiccupDelay 10000us
param **.sink.repFirstPackets 0
param **.obuf.credMinTime 4.096us
param **H_**.obuf.size 5
param **.ibuf.lossyMode false
param **.ISWDelay 50ns
param **.VSWDelay 50ns
param **SW**.vlarb.coreFreq 1200MHz
param **H_**.vlarb.coreFreq 1000MHz
param **SW**.vlarb.busWidth 24B
param **H_**.vlarb.busWidth 16B
param **.vlarb.vlHighLimit 16
param **.vlarb.highVLArbEntries "\"0:1 1:20 2:40 3:80\""
param **.vlarb.lowVLArbEntries "\"0:1 1:20 2:40 3:80\""
param **.vlarb.useFCFSRQArb false
param **.pktfwd.AdaptMode "\"none\""
param **.pktfwd.LIDBindTime 2us
param **.pktfwd.TQBusy1Thd 20
param **.pktfwd.TQBusy2Thd 40
param **.pktfwd.TQBusy3Thd 80
param **.pktfwd.ARAdaptThd 4
param **.pktfwd.OPSelAlgo "\"greedy\""
param **.pktfwd.GreedyRandSize 3
param **.pktfwd.statRepTime 10us
param **.pktfwd.OPSelOffsetByDLID 0
param **.L1_switches[0]**.fdbIndex 0
param **.L1_switches[1]**.fdbIndex 1
param **.L1_switches[2]**.fdbIndex 2
param **.L1_switches[3]**.fdbIndex 3
param **.L1_switches[4]**.fdbIndex 4
param **.L1_switches[5]**.fdbIndex 5
param **.L1_switches[6]**.fdbIndex 6
param **.L1_switches[7]**.fdbIndex 7
param **.L1_switches[8]**.fdbIndex 8
param **.L1_switches[9]**.fdbIndex 9
param **.L1_switches[10]**.fdbIndex 10
param **.L1_switches[11]**.fdbIndex 11
param **.L1_switches[12]**.fdbIndex 12
param **.L1_switches[13]**.fdbIndex 13
param **.L1_switches[14]**.fdbIndex 14
param **.L1_switches[15]**.fdbIndex 15
param **.L1_switches[16]**.fdbIndex 16
param **.L1_switches[17]**.fdbIndex 17
param **.L1_switches[18]**.fdbIndex 18
param **.L1_switches[19]**.fdbIndex 19
param **.L1_switches[20]**.fdbIndex 20
param **.L1_switches[21]**.fdbIndex 21
param **.L1_switches[22]**.fdbIndex 22
param **.L1_switches[23]**.fdbIndex 23
param **.L1_switches[24]**.fdbIndex 24
param **.L1_switches[25]**.fdbIndex 25
param **.L1_switches[26]**.fdbIndex 26
param **.L1_switches[27]**.fdbIndex 27
param **.L1_switches[28]**.fdbIndex 28
param **.L1_switches[29]**.fdbIndex 29
param **.L1_switches[30]**.fdbIndex 30
param **.L1_switches[31]**.fdbIndex 31
param **.L1_switches[32]**.fdbIndex 32
param **.L1_switches[33]**.fdbIndex 33
param **.L1_switches[34]**.fdbIndex 34
param **.L1_switches[35]**.fdbIndex 35
param **.L1_switches[36]**.fdbIndex 36
param **.L1_switches[37]**.fdbIndex 37
param **.L1_switches[38]**.fdbIndex 38
param **.L1_switches[39]**.fdbIndex 39
param **.L1_switches[40]**.fdbIndex 40
param **.L1_switches[41]**.fdbIndex 41
param **.L1_switches[42]**.fdbIndex 42
param **.L1_switches[43]**.fdbIndex 43
param **.L1_switches[44]**.fdbIndex 44
param **.L1_switches[45]**.fdbIndex 45
param **.L1_switches[46]**.fdbIndex 46
param **.L1_switches[47]**.fdbIndex 47
param **.L1_switches[48]**.fdbIndex 48
param **.L1_switches[49]**.fdbIndex 49
param **.L1_switches[50]**.fdbIndex 50
param **.L1_switches[51]**.fdbIndex 51
param **.L1_switches[52]**.fdbIndex 52
param **.L1_switches[53]**.fdbIndex 53
param **.L1_switches[54]**.fdbIndex 54
param **.L1_switches[55]**.fdbIndex 55
param **.L1_switches[56]**.fdbIndex 56
param **.L1_switches[57]**.fdbIndex 57
param **.L1_switches[58]**.fdbIndex 58
param **.L1_switches[59]**.fdbIndex 59
param **.L1_switches[60]**.fdbIndex 60
param **.L1_switches[61]**.fdbIndex 61
param **.L1_switches[62]**.fdbIndex 62
param **.L1_switches[63]**.fdbIndex 63
param **.L1_switches[64]**.fdbIndex 64
param **.L1_switches[65]**.fdbIndex 65
param **.L1_switches[66]**.fdbIndex 66
param **.L1_switches[67]**.fdbIndex 67
param **.L1_switches[68]**.fdbIndex 68
param **.L1_switches[69]**.fdbIndex 69
param **.L1_switches[70]**.fdbIndex 70
param **.L1_switches[71]**.fdbIndex 71
param **.L1_switches[72]**.fdbIndex 72
param **.L1_switches[73]**.fdbIndex 73
param **.L1_switches[74]**.fdbIndex 74
param **.L1_switches[75]**.fdbIndex 75
param **.L1_switches[76]**.fdbIndex 76
param **.L1_switches[77]**.fdbIndex 77
param **.L1_switches[78]**.fdbIndex 78
param **.L1_switches[79]**.fdbIndex 79
param **.L1_switches[80]**.fdbIndex 80
param **.L1_switches[81]**.fdbIndex 81
param **.L1_switches[82]**.fdbIndex 82
param **.L1_switches[83]**.fdbIndex 83
param **.L1_switches[84]**.fdbIndex 84
param **.L1_switches[85]**.fdbIndex 85
param **.L1_switches[86]**.fdbIndex 86
param **.L1_switches[87]**.fdbIndex 87
param **.L1_switches[88]**.fdbIndex 88
param **.L1_switches[89]**.fdbIndex 89
param **.L1_switches[90]**.fdbIndex 90
param **.L1_switches[91]**.fdbIndex 91
param **.L1_switches[92]**.fdbIndex 92
param **.L1_switches[93]**.fdbIndex 93
param **.L1_switches[94]**.fdbIndex 94
param **.L1_switches[95]**.fdbIndex 95
param **.L1_switches[96]**.fdbIndex 96
param **.L1_switches[97]**.fdbIndex 97
param **.L1_switches[98]**.fdbIndex 98
param **.L1_switches[99]**.fdbIndex 99
param **.L1_switches[100]**.fdbIndex 100
param **.L1_switches[101]**.fdbIndex 101
param **.L1_switches[102]**.fdbIndex 102
param **.L1_switches[103]**.fdbIndex 103
param **.L1_switches[104]**.fdbIndex 104
param **.L1_switches[105]**.fdbIndex 105
param **.L1_switches[106]**.fdbIndex 106
param **.L1_switches[107]**.fdbIndex 107
param **.L1_switches[108]**.fdbIndex 108
param **.L1_switches[109]**.fdbIndex 109
param **.L1_switches[110]**.fdbIndex 110
param **.L1_switches[111]**.fdbIndex 111
param **.L1_switches[112]**.fdbIndex 112
param **.L1_switches[113]**.fdbIndex 113
param **.L1_switches[114]**.fdbIndex 114
param **.L1_switches[115]**.fdbIndex 115
param **.L1_switches[116]**.fdbIndex 116
param **.L1_switches[117]**.fdbIndex 117
param **.L1_switches[118]**.fdbIndex 118
param **.L1_switches[119]**.fdbIndex 119
param **.L1_switches[120]**.fdbIndex 120
param **.L1_switches[121]**.fdbIndex 121
param **.L1_switches[122]**.fdbIndex 122
param **.L1_switches[123]**.fdbIndex 123
param **.L1_switches[124]**.fdbIndex 124
param **.L1_switches[125]**.fdbIndex 125
param **.L1_switches[126]**.fdbIndex 126
param **.L1_switches[127]**.fdbIndex 127
param **.L2_switches[0]**.fdbIndex 128
param **.L2_switches[1]**.fdbIndex 129
param **.L2_switches[2]**.fdbIndex 130
param **.L2_switches[3]**.fdbIndex 131
param **.L2_switches[4]**.fdbIndex 132
param **.L2_switches[5]**.fdbIndex 133
param **.L2_switches[6]**.fdbIndex 134
param **.L2_switches[7]**.fdbIndex 135
param **.L2_switches[8]**.fdbIndex 136
param **.L2_switches[9]**.fdbIndex 137
param **.L2_switches[10]**.fdbIndex 138
param **.L2_switches[11]**.fdbIndex 139
param **.L2_switches[12]**.fdbIndex 140
param **.L2_switches[13]**.fdbIndex 141
param **.L2_switches[14]**.fdbIndex 142
param **.L2_switches[15]**.fdbIndex 143
param **.L2_switches[16]**.fdbIndex 144
param **.L2_switches[17]**.fdbIndex 145
param **.L2_switches[18]**.fdbIndex 146
param **.L2_switches[19]**.fdbIndex 147
param **.L2_switches[20]**.fdbIndex 148
param **.L2_switches[21]**.fdbIndex 149
param **.L2_switches[22]**.fdbIndex 150
param **.L2_switches[23]**.fdbIndex 151
param **.L2_switches[24]**.fdbIndex 152
param **.L2_switches[25]**.fdbIndex 153
param **.L2_switches[26]**.fdbIndex 154
param **.L2_switches[27]**.fdbIndex 155
param **.L2_switches[28]**.fdbIndex 156
param **.L2_switches[29]**.fdbIndex 157
param **.L2_switches[30]**.fdbIndex 158
param **.L2_switches[31]**.fdbIndex 159
param **.L2_switches[32]**.fdbIndex 160
param **.L2_switches[33]**.fdbIndex 161
param **.L2_switches[34]**.fdbIndex 162
param **.L2_switches[35]**.fdbIndex 163
param **.L2_switches[36]**.fdbIndex 164
param **.L2_switches[37]**.fdbIndex 165
param **.L2_switches[38]**.fdbIndex 166
param **.L2_switches[39]**.fdbIndex 167
param **.L2_switches[40]**.fdbIndex 168
param **.L2_switches[41]**.fdbIndex 169
param **.L2_switches[42]**.fdbIndex 170
param **.L2_switches[43]**.fdbIndex 171
param **.L2_switches[44]**.fdbIndex 172
param **.L2_switches[45]**.fdbIndex 173
param **.L2_switches[46]**.fdbIndex 174
param **.L2_switches[47]**.fdbIndex 175
param **.L2_switches[48]**.fdbIndex 176
param **.L2_switches[49]**.fdbIndex 177
param **.L2_switches[50]**.fdbIndex 178
param **.L2_switches[51]**.fdbIndex 179
param **.L2_switches[52]**.fdbIndex 180
param **.L2_switches[53]**.fdbIndex 181
param **.L2_switches[54]**.fdbIndex 182
param **.L2_switches[55]**.fdbIndex 183
param **.L2_switches[56]**.fdbIndex 184
param **.L2_switches[57]**.fdbIndex 185
param **.L2_switches[58]**.fdbIndex 186
param **.L2_switches[59]**.fdbIndex 187
param **.L2_switches[60]**.fdbIndex 188
param **.L2_switches[61]**.fdbIndex 189
param **.L2_switches[62]**.fdbIndex 190
param **.L2_switches[63]**.fdbIndex 191
param **.L2_switches[64]**.fdbIndex 192
param **.L2_switches[65]**.fdbIndex 193
param **.L2_switches[66]**.fdbIndex 194
param **.L2_switches[67]**.fdbIndex 195
param **.L2_switches[68]**.fdbIndex 196
param **.L2_switches[69]**.fdbIndex 197
param **.L2_switches[70]**.fdbIndex 198
param **.L2_switches[71]**.fdbIndex 199
param **.L2_switches[72]**.fdbIndex 200
param **.L2_switches[73]**.fdbIndex 201
param **.L2_switches[74]**.fdbIndex 202
param **.L2_switches[75]**.fdbIndex 203
param **.L2_switches[76]**.fdbIndex 204
param **.L2_switches[77]**.fdbIndex 205
param **.L2_switches[78]**.fdbIndex 206
param **.L2_switches[79]**.fdbIndex 207
param **.L2_switches[80]**.fdbIndex 208
param **.L2_switches[81]**.fdbIndex 209
param **.L2_switches[82]**.fdbIndex 210
param **.L2_switches[83]**.fdbIndex 211
param **.L2_switches[84]**.fdbIndex 212
param **.L2_switches[85]**.fdbIndex 213
param **.L2_switches[86]**.fdbIndex 214
param **.L2_switches[87]**.fdbIndex 215
param **.L2_switches[88]**.fdbIndex 216
param **.L2_switches[89]**.fdbIndex 217
param **.L2_switches[90]**.fdbIndex 218
param **.L2_switches[91]**.fdbIndex 219
param **.L2_switches[92]**.fdbIndex 220
param **.L2_switches[93]**.fdbIndex 221
param **.L2_switches[94]**.fdbIndex 222
param **.L2_switches[95]**.fdbIndex 223
param **.L2_switches[96]**.fdbIndex 224
param **.L2_switches[97]**.fdbIndex 225
param **.L2_switches[98]**.fdbIndex 226
param **.L2_switches[99]**.fdbIndex 227
param **.L2_switches[100]**.fdbIndex 228
param **.L2_switches[101]**.fdbIndex 229
param **.L2_switches[102]**.fdbIndex 230
param **.L2_switches[103]**.fdbIndex 231
param **.L2_switches[104]**.fdbIndex 232
param **.L2_switches[105]**.fdbIndex 233
param **.L2_switches[106]**.fdbIndex 234
param **.L2_switches[107]**.fdbIndex 235
param **.L2_switches[108]**.fdbIndex 236
param **.L2_switches[109]**.fdbIndex 237
param **.L2_switches[110]**.fdbIndex 238
param **.L2_switches[111]**.fdbIndex 239
param **.L2_switches[112]**.fdbIndex 240
param **.L2_switches[113]**.fdbIndex 241
param **.L2_switches[114]**.fdbIndex 242
param **.L2_switches[115]**.fdbIndex 243
param **.L2_switches[116]**.fdbIndex 244
param **.L2_switches[117]**.fdbIndex 245
param **.L2_switches[118]**.fdbIndex 246
param **.L2_switches[119]**.fdbIndex 247
param **.L2_switches[120]**.fdbIndex 248
param **.L2_switches[121]**.fdbIndex 249
param **.L2_switches[122]**.fdbIndex 250
param **.L2_switches[123]**.fdbIndex 251
param **.L2_switches[124]**.fdbIndex 252
param **.L2_switches[125]**.fdbIndex 253
param **.L2_switches[126]**.fdbIndex 254
param **.L2_switches[127]**.fdbIndex 255
param **.L3_switches[0]**.fdbIndex 256
param **.L3_switches[1]**.fdbIndex 257
param **.L3_switches[2]**.fdbIndex 258
param **.L3_switches[3]**.fdbIndex 259
param **.L3_switches[4]**.fdbIndex 260
param **.L3_switches[5]**.fdbIndex 261
param **.L3_switches[6]**.fdbIndex 262
param **.L3_switches[7]**.fdbIndex 263
param **.L3_switches[8]**.fdbIndex 264
param **.L3_switches[9]**.fdbIndex 265
param **.L3_switches[10]**.fdbIndex 266
param **.L3_switches[11]**.fdbIndex 267
param **.L3_switches[12]**.fdbIndex 268
param **.L3_switches[13]**.fdbIndex 269
param **.L3_switches[14]**.fdbIndex 270
param **.L3_switches[15]**.fdbIndex 271
param **.L3_switches[16]**.fdbIndex 272
param **.L3_switches[17]**.fdbIndex 273
param **.L3_switches[18]**.fdbIndex 274
param **.L3_switches[19]**.fdbIndex 275
param **.L3_switches[20]**.fdbIndex 276
param **.L3_switches[21]**.fdbIndex 277
param **.L3_switches[22]**.fdbIndex 278
param **.L3_switches[23]**.fdbIndex 279
param **.L3_switches[24]**.fdbIndex 280
param **.L3_switches[25]**.fdbIndex 281
param **.L3_switches[26]**.fdbIndex 282
param **.L3_switches[27]**.fdbIndex 283
param **.L3_switches[28]**.fdbIndex 284
param **.L3_switches[29]**.fdbIndex 285
param **.L3_switches[30]**.fdbIndex 286
param **.L3_switches[31]**.fdbIndex 287
param **.L3_switches[32]**.fdbIndex 288
param **.L3_switches[33]**.fdbIndex 289
param **.L3_switches[34]**.fdbIndex 290
param **.L3_switches[35]**.fdbIndex 291
param **.L3_switches[36]**.fdbIndex 292
param **.L3_switches[37]**.fdbIndex 293
param **.L3_switches[38]**.fdbIndex 294
param **.L3_switches[39]**.fdbIndex 295
param **.L3_switches[40]**.fdbIndex 296
param **.L3_switches[41]**.fdbIndex 297
param **.L3_switches[42]**.fdbIndex 298
param **.L3_switches[43]**.fdbIndex 299
param **.L3_switches[44]**.fdbIndex 300
param **.L3_switches[45]**.fdbIndex 301
param **.L3_switches[46]**.fdbIndex 302
param **.L3_switches[47]**.fdbIndex 303
param **.L3_switches[48]**.fdbIndex 304
param **.L3_switches[49]**.fdbIndex 305
param **.L3_switches[50]**.fdbIndex 306
param **.L3_switches[51]**.fdbIndex 307
param **.L3_switches[52]**.fdbIndex 308
param **.L3_switches[53]**.fdbIndex 309
param **.L3_switches[54]**.fdbIndex 310
param **.L3_switches[55]**.fdbIndex 311
param **.L3_switches[56]**.fdbIndex 312
param **.L3_switches[57]**.fdbIndex 313
param **.L3_switches[58]**.fdbIndex 314
param **.L3_switches[59]**.fdbIndex 315
param **.L3_switches[60]**.fdbIndex 316
param **.L3_switches[61]**.fdbIndex 317
param **.L3_switches[62]**.fdbIndex 318
param **.L3_switches[63]**.fdbIndex 319
param **.servers[935]**.dstLid 272
param **.servers[935].app.msgLength 4194304B
param **.servers[935].app.msg2msgGap 1ns
param **.servers[935].app.msgNum 5
param **.servers[935].**.on_average_throughput 1
param **.servers[935]**.startTime 0.005000
param **.servers[935]**.endTime 0.025000
param **.servers[935].gen.on_cc 1
param **.servers[271].sink.on_cc 1
param **.servers[935].sink.on_cc 1
param **.servers[271].gen.on_cc 1
param **.servers[271]**.on_utilization 1
param **.servers[32]**.dstLid 693
param **.servers[32].app.msgLength 4194304B
param **.servers[32].app.msg2msgGap 1ns
param **.servers[32].app.msgNum 5
param **.servers[32].**.on_average_throughput 1
param **.servers[32]**.startTime 0.005000
param **.servers[32]**.endTime 0.025000
param **.servers[32].gen.on_cc 1
param **.servers[692].sink.on_cc 1
param **.servers[32].sink.on_cc 1
param **.servers[692].gen.on_cc 1
param **.servers[692]**.on_utilization 1
param **.servers[157]**.dstLid 255
param **.servers[157].app.msgLength 4194304B
param **.servers[157].app.msg2msgGap 1ns
param **.servers[157].app.msgNum 5
param **.servers[157].**.on_average_throughput 1
param **.servers[157]**.startTime 0.005000
param **.servers[157]**.endTime 0.025000
param **.servers[157].gen.on_cc 1
param **.servers[254].sink.on_cc 1
param **.servers[157].sink.on_cc 1
param **.servers[254].gen.on_cc 1
param **.servers[254]**.on_utilization 1
param **.servers[126]**.dstLid 370
param **.servers[126].app.msgLength 4194304B
param **.servers[126].app.msg2msgGap 1ns
param **.servers[126].app.msgNum 5
param **.servers[126].**.on_average_throughput 1
param **.servers[126]**.startTime 0.005000
param **.servers[126]**.endTime 0.025000
param **.servers[126].gen.on_cc 1
param **.servers[369].sink.on_cc 1
param **.servers[126].sink.on_cc 1
param **.servers[369].gen.on_cc 1
param **.servers[369]**.on_utilization 1
param **.servers[319]**.dstLid 420
param **.servers[319].app.msgLength 4194304B
param **.servers[319].app.msg2msgGap 1ns
param **.servers[319].app.msgNum 5
param **.servers[319].**.on_average_throughput 1
param **.servers[319]**.startTime 0.005000
param **.servers[319]**.endTime 0.025000
param **.servers[319].gen.on_cc 1
param **.servers[419].sink.on_cc 1
param **.servers[319].sink.on_cc 1
param **.servers[419].gen.on_cc 1
param **.servers[419]**.on_utilization 1
param **.servers[864]**.dstLid 274
param **.servers[864].app.msgLength 4194304B
param **.servers[864].app.msg2msgGap 1ns
param **.servers[864].app.msgNum 5
param **.servers[864].**.on_average_throughput 1
param **.servers[864]**.startTime 0.005000
param **.servers[864]**.endTime 0.025000
param **.servers[864].gen.on_cc 1
param **.servers[273].sink.on_cc 1
param **.servers[864].sink.on_cc 1
param **.servers[273].gen.on_cc 1
param **.servers[273]**.on_utilization 1
param **.servers[931]**.dstLid 1006
param **.servers[931].app.msgLength 4194304B
param **.servers[931].app.msg2msgGap 1ns
param **.servers[931].app.msgNum 5
param **.servers[931].**.on_average_throughput 1
param **.servers[931]**.startTime 0.005000
param **.servers[931]**.endTime 0.025000
param **.servers[931].gen.on_cc 1
param **.servers[1005].sink.on_cc 1
param **.servers[931].sink.on_cc 1
param **.servers[1005].gen.on_cc 1
param **.servers[1005]**.on_utilization 1
param **.servers[467]**.dstLid 550
param **.servers[467].app.msgLength 4194304B
param **.servers[467].app.msg2msgGap 1ns
param **.servers[467].app.msgNum 5
param **.servers[467].**.on_average_throughput 1
param **.servers[467]**.startTime 0.005000
param **.servers[467]**.endTime 0.025000
param **.servers[467].gen.on_cc 1
param **.servers[549].sink.on_cc 1
param **.servers[467].sink.on_cc 1
param **.servers[549].gen.on_cc 1
param **.servers[549]**.on_utilization 1
param **.servers[857]**.dstLid 706
param **.servers[857].app.msgLength 4194304B
param **.servers[857].app.msg2msgGap 1ns
param **.servers[857].app.msgNum 5
param **.servers[857].**.on_average_throughput 1
param **.servers[857]**.startTime 0.005000
param **.servers[857]**.endTime 0.025000
param **.servers[857].gen.on_cc 1
param **.servers[705].sink.on_cc 1
param **.servers[857].sink.on_cc 1
param **.servers[705].gen.on_cc 1
param **.servers[705]**.on_utilization 1
param **.servers[966]**.dstLid 470
param **.servers[966].app.msgLength 4194304B
param **.servers[966].app.msg2msgGap 1ns
param **.servers[966].app.msgNum 5
param **.servers[966].**.on_average_throughput 1
param **.servers[966]**.startTime 0.005000
param **.servers[966]**.endTime 0.025000
param **.servers[966].gen.on_cc 1
param **.servers[469].sink.on_cc 1
param **.servers[966].sink.on_cc 1
param **.servers[469].gen.on_cc 1
param **.servers[469]**.on_utilization 1
param **.servers[975]**.dstLid 221
param **.servers[975].app.msgLength 4194304B
param **.servers[975].app.msg2msgGap 1ns
param **.servers[975].app.msgNum 5
param **.servers[975].**.on_average_throughput 1
param **.servers[975]**.startTime 0.005000
param **.servers[975]**.endTime 0.025000
param **.servers[975].gen.on_cc 1
param **.servers[220].sink.on_cc 1
param **.servers[975].sink.on_cc 1
param **.servers[220].gen.on_cc 1
param **.servers[220]**.on_utilization 1
param **.servers[368]**.dstLid 610
param **.servers[368].app.msgLength 4194304B
param **.servers[368].app.msg2msgGap 1ns
param **.servers[368].app.msgNum 5
param **.servers[368].**.on_average_throughput 1
param **.servers[368]**.startTime 0.005000
param **.servers[368]**.endTime 0.025000
param **.servers[368].gen.on_cc 1
param **.servers[609].sink.on_cc 1
param **.servers[368].sink.on_cc 1
param **.servers[609].gen.on_cc 1
param **.servers[609]**.on_utilization 1
param **.servers[970]**.dstLid 775
param **.servers[970].app.msgLength 4194304B
param **.servers[970].app.msg2msgGap 1ns
param **.servers[970].app.msgNum 5
param **.servers[970].**.on_average_throughput 1
param **.servers[970]**.startTime 0.005000
param **.servers[970]**.endTime 0.025000
param **.servers[970].gen.on_cc 1
param **.servers[774].sink.on_cc 1
param **.servers[970].sink.on_cc 1
param **.servers[774].gen.on_cc 1
param **.servers[774]**.on_utilization 1
param **.servers[34]**.dstLid 401
param **.servers[34].app.msgLength 4194304B
param **.servers[34].app.msg2msgGap 1ns
param **.servers[34].app.msgNum 5
param **.servers[34].**.on_average_throughput 1
param **.servers[34]**.startTime 0.005000
param **.servers[34]**.endTime 0.025000
param **.servers[34].gen.on_cc 1
param **.servers[400].sink.on_cc 1
param **.servers[34].sink.on_cc 1
param **.servers[400].gen.on_cc 1
param **.servers[400]**.on_utilization 1
param **.servers[246]**.dstLid 610
param **.servers[246].app.msgLength 4194304B
param **.servers[246].app.msg2msgGap 1ns
param **.servers[246].app.msgNum 5
param **.servers[246].**.on_average_throughput 1
param **.servers[246]**.startTime 0.005000
param **.servers[246]**.endTime 0.025000
param **.servers[246].gen.on_cc 1
param **.servers[609].sink.on_cc 1
param **.servers[246].sink.on_cc 1
param **.servers[609].gen.on_cc 1
param **.servers[609]**.on_utilization 1
param **.servers[500]**.dstLid 344
param **.servers[500].app.msgLength 4194304B
param **.servers[500].app.msg2msgGap 1ns
param **.servers[500].app.msgNum 5
param **.servers[500].**.on_average_throughput 1
param **.servers[500]**.startTime 0.005000
param **.servers[500]**.endTime 0.025000
param **.servers[500].gen.on_cc 1
param **.servers[343].sink.on_cc 1
param **.servers[500].sink.on_cc 1
param **.servers[343].gen.on_cc 1
param **.servers[343]**.on_utilization 1
param **.servers[910]**.dstLid 370
param **.servers[910].app.msgLength 4194304B
param **.servers[910].app.msg2msgGap 1ns
param **.servers[910].app.msgNum 5
param **.servers[910].**.on_average_throughput 1
param **.servers[910]**.startTime 0.005000
param **.servers[910]**.endTime 0.025000
param **.servers[910].gen.on_cc 1
param **.servers[369].sink.on_cc 1
param **.servers[910].sink.on_cc 1
param **.servers[369].gen.on_cc 1
param **.servers[369]**.on_utilization 1
param **.servers[482]**.dstLid 43
param **.servers[482].app.msgLength 4194304B
param **.servers[482].app.msg2msgGap 1ns
param **.servers[482].app.msgNum 5
param **.servers[482].**.on_average_throughput 1
param **.servers[482]**.startTime 0.005000
param **.servers[482]**.endTime 0.025000
param **.servers[482].gen.on_cc 1
param **.servers[42].sink.on_cc 1
param **.servers[482].sink.on_cc 1
param **.servers[42].gen.on_cc 1
param **.servers[42]**.on_utilization 1
param **.servers[259]**.dstLid 155
param **.servers[259].app.msgLength 4194304B
param **.servers[259].app.msg2msgGap 1ns
param **.servers[259].app.msgNum 5
param **.servers[259].**.on_average_throughput 1
param **.servers[259]**.startTime 0.005000
param **.servers[259]**.endTime 0.025000
param **.servers[259].gen.on_cc 1
param **.servers[154].sink.on_cc 1
param **.servers[259].sink.on_cc 1
param **.servers[154].gen.on_cc 1
param **.servers[154]**.on_utilization 1
param **.servers[437]**.dstLid 775
param **.servers[437].app.msgLength 4194304B
param **.servers[437].app.msg2msgGap 1ns
param **.servers[437].app.msgNum 5
param **.servers[437].**.on_average_throughput 1
param **.servers[437]**.startTime 0.005000
param **.servers[437]**.endTime 0.025000
param **.servers[437].gen.on_cc 1
param **.servers[774].sink.on_cc 1
param **.servers[437].sink.on_cc 1
param **.servers[774].gen.on_cc 1
param **.servers[774]**.on_utilization 1
param **.servers[282]**.dstLid 845
param **.servers[282].app.msgLength 4194304B
param **.servers[282].app.msg2msgGap 1ns
param **.servers[282].app.msgNum 5
param **.servers[282].**.on_average_throughput 1
param **.servers[282]**.startTime 0.005000
param **.servers[282]**.endTime 0.025000
param **.servers[282].gen.on_cc 1
param **.servers[844].sink.on_cc 1
param **.servers[282].sink.on_cc 1
param **.servers[844].gen.on_cc 1
param **.servers[844]**.on_utilization 1
param **.servers[348]**.dstLid 344
param **.servers[348].app.msgLength 4194304B
param **.servers[348].app.msg2msgGap 1ns
param **.servers[348].app.msgNum 5
param **.servers[348].**.on_average_throughput 1
param **.servers[348]**.startTime 0.005000
param **.servers[348]**.endTime 0.025000
param **.servers[348].gen.on_cc 1
param **.servers[343].sink.on_cc 1
param **.servers[348].sink.on_cc 1
param **.servers[343].gen.on_cc 1
param **.servers[343]**.on_utilization 1
param **.servers[551]**.dstLid 221
param **.servers[551].app.msgLength 4194304B
param **.servers[551].app.msg2msgGap 1ns
param **.servers[551].app.msgNum 5
param **.servers[551].**.on_average_throughput 1
param **.servers[551]**.startTime 0.005000
param **.servers[551]**.endTime 0.025000
param **.servers[551].gen.on_cc 1
param **.servers[220].sink.on_cc 1
param **.servers[551].sink.on_cc 1
param **.servers[220].gen.on_cc 1
param **.servers[220]**.on_utilization 1
param **.servers[993]**.dstLid 947
param **.servers[993].app.msgLength 4194304B
param **.servers[993].app.msg2msgGap 1ns
param **.servers[993].app.msgNum 5
param **.servers[993].**.on_average_throughput 1
param **.servers[993]**.startTime 0.005000
param **.servers[993]**.endTime 0.025000
param **.servers[993].gen.on_cc 1
param **.servers[946].sink.on_cc 1
param **.servers[993].sink.on_cc 1
param **.servers[946].gen.on_cc 1
param **.servers[946]**.on_utilization 1
param **.servers[649]**.dstLid 136
param **.servers[649].app.msgLength 4194304B
param **.servers[649].app.msg2msgGap 1ns
param **.servers[649].app.msgNum 5
param **.servers[649].**.on_average_throughput 1
param **.servers[649]**.startTime 0.005000
param **.servers[649]**.endTime 0.025000
param **.servers[649].gen.on_cc 1
param **.servers[135].sink.on_cc 1
param **.servers[649].sink.on_cc 1
param **.servers[135].gen.on_cc 1
param **.servers[135]**.on_utilization 1
param **.servers[659]**.dstLid 155
param **.servers[659].app.msgLength 4194304B
param **.servers[659].app.msg2msgGap 1ns
param **.servers[659].app.msgNum 5
param **.servers[659].**.on_average_throughput 1
param **.servers[659]**.startTime 0.005000
param **.servers[659]**.endTime 0.025000
param **.servers[659].gen.on_cc 1
param **.servers[154].sink.on_cc 1
param **.servers[659].sink.on_cc 1
param **.servers[154].gen.on_cc 1
param **.servers[154]**.on_utilization 1
param **.servers[1000]**.dstLid 505
param **.servers[1000].app.msgLength 4194304B
param **.servers[1000].app.msg2msgGap 1ns
param **.servers[1000].app.msgNum 5
param **.servers[1000].**.on_average_throughput 1
param **.servers[1000]**.startTime 0.005000
param **.servers[1000]**.endTime 0.025000
param **.servers[1000].gen.on_cc 1
param **.servers[504].sink.on_cc 1
param **.servers[1000].sink.on_cc 1
param **.servers[504].gen.on_cc 1
param **.servers[504]**.on_utilization 1
param **.servers[847]**.dstLid 706
param **.servers[847].app.msgLength 4194304B
param **.servers[847].app.msg2msgGap 1ns
param **.servers[847].app.msgNum 5
param **.servers[847].**.on_average_throughput 1
param **.servers[847]**.startTime 0.005000
param **.servers[847]**.endTime 0.025000
param **.servers[847].gen.on_cc 1
param **.servers[705].sink.on_cc 1
param **.servers[847].sink.on_cc 1
param **.servers[705].gen.on_cc 1
param **.servers[705]**.on_utilization 1
param **.servers[195]**.dstLid 338
param **.servers[195].app.msgLength 4194304B
param **.servers[195].app.msg2msgGap 1ns
param **.servers[195].app.msgNum 5
param **.servers[195].**.on_average_throughput 1
param **.servers[195]**.startTime 0.005000
param **.servers[195]**.endTime 0.025000
param **.servers[195].gen.on_cc 1
param **.servers[337].sink.on_cc 1
param **.servers[195].sink.on_cc 1
param **.servers[337].gen.on_cc 1
param **.servers[337]**.on_utilization 1
param **.servers[537]**.dstLid 91
param **.servers[537].app.msgLength 4194304B
param **.servers[537].app.msg2msgGap 1ns
param **.servers[537].app.msgNum 5
param **.servers[537].**.on_average_throughput 1
param **.servers[537]**.startTime 0.005000
param **.servers[537]**.endTime 0.025000
param **.servers[537].gen.on_cc 1
param **.servers[90].sink.on_cc 1
param **.servers[537].sink.on_cc 1
param **.servers[90].gen.on_cc 1
param **.servers[90]**.on_utilization 1
param **.servers[74]**.dstLid 136
param **.servers[74].app.msgLength 4194304B
param **.servers[74].app.msg2msgGap 1ns
param **.servers[74].app.msgNum 5
param **.servers[74].**.on_average_throughput 1
param **.servers[74]**.startTime 0.005000
param **.servers[74]**.endTime 0.025000
param **.servers[74].gen.on_cc 1
param **.servers[135].sink.on_cc 1
param **.servers[74].sink.on_cc 1
param **.servers[135].gen.on_cc 1
param **.servers[135]**.on_utilization 1
param **.servers[331]**.dstLid 83
param **.servers[331].app.msgLength 4194304B
param **.servers[331].app.msg2msgGap 1ns
param **.servers[331].app.msgNum 5
param **.servers[331].**.on_average_throughput 1
param **.servers[331]**.startTime 0.005000
param **.servers[331]**.endTime 0.025000
param **.servers[331].gen.on_cc 1
param **.servers[82].sink.on_cc 1
param **.servers[331].sink.on_cc 1
param **.servers[82].gen.on_cc 1
param **.servers[82]**.on_utilization 1
param **.servers[914]**.dstLid 947
param **.servers[914].app.msgLength 4194304B
param **.servers[914].app.msg2msgGap 1ns
param **.servers[914].app.msgNum 5
param **.servers[914].**.on_average_throughput 1
param **.servers[914]**.startTime 0.005000
param **.servers[914]**.endTime 0.025000
param **.servers[914].gen.on_cc 1
param **.servers[946].sink.on_cc 1
param **.servers[914].sink.on_cc 1
param **.servers[946].gen.on_cc 1
param **.servers[946]**.on_utilization 1
param **.servers[657]**.dstLid 255
param **.servers[657].app.msgLength 4194304B
param **.servers[657].app.msg2msgGap 1ns
param **.servers[657].app.msgNum 5
param **.servers[657].**.on_average_throughput 1
param **.servers[657]**.startTime 0.005000
param **.servers[657]**.endTime 0.025000
param **.servers[657].gen.on_cc 1
param **.servers[254].sink.on_cc 1
param **.servers[657].sink.on_cc 1
param **.servers[254].gen.on_cc 1
param **.servers[254]**.on_utilization 1
param **.servers[72]**.dstLid 417
param **.servers[72].app.msgLength 4194304B
param **.servers[72].app.msg2msgGap 1ns
param **.servers[72].app.msgNum 5
param **.servers[72].**.on_average_throughput 1
param **.servers[72]**.startTime 0.005000
param **.servers[72]**.endTime 0.025000
param **.servers[72].gen.on_cc 1
param **.servers[416].sink.on_cc 1
param **.servers[72].sink.on_cc 1
param **.servers[416].gen.on_cc 1
param **.servers[416]**.on_utilization 1
param **.servers[1019]**.dstLid 15
param **.servers[1019].app.msgLength 4194304B
param **.servers[1019].app.msg2msgGap 1ns
param **.servers[1019].app.msgNum 5
param **.servers[1019].**.on_average_throughput 1
param **.servers[1019]**.startTime 0.005000
param **.servers[1019]**.endTime 0.025000
param **.servers[1019].gen.on_cc 1
param **.servers[14].sink.on_cc 1
param **.servers[1019].sink.on_cc 1
param **.servers[14].gen.on_cc 1
param **.servers[14]**.on_utilization 1
param **.servers[825]**.dstLid 514
param **.servers[825].app.msgLength 4194304B
param **.servers[825].app.msg2msgGap 1ns
param **.servers[825].app.msgNum 5
param **.servers[825].**.on_average_throughput 1
param **.servers[825]**.startTime 0.005000
param **.servers[825]**.endTime 0.025000
param **.servers[825].gen.on_cc 1
param **.servers[513].sink.on_cc 1
param **.servers[825].sink.on_cc 1
param **.servers[513].gen.on_cc 1
param **.servers[513]**.on_utilization 1
param **.servers[183]**.dstLid 844
param **.servers[183].app.msgLength 4194304B
param **.servers[183].app.msg2msgGap 1ns
param **.servers[183].app.msgNum 5
param **.servers[183].**.on_average_throughput 1
param **.servers[183]**.startTime 0.005000
param **.servers[183]**.endTime 0.025000
param **.servers[183].gen.on_cc 1
param **.servers[843].sink.on_cc 1
param **.servers[183].sink.on_cc 1
param **.servers[843].gen.on_cc 1
param **.servers[843]**.on_utilization 1
param **.servers[666]**.dstLid 775
param **.servers[666].app.msgLength 4194304B
param **.servers[666].app.msg2msgGap 1ns
param **.servers[666].app.msgNum 5
param **.servers[666].**.on_average_throughput 1
param **.servers[666]**.startTime 0.005000
param **.servers[666]**.endTime 0.025000
param **.servers[666].gen.on_cc 1
param **.servers[774].sink.on_cc 1
param **.servers[666].sink.on_cc 1
param **.servers[774].gen.on_cc 1
param **.servers[774]**.on_utilization 1
param **.servers[494]**.dstLid 299
param **.servers[494].app.msgLength 4194304B
param **.servers[494].app.msg2msgGap 1ns
param **.servers[494].app.msgNum 5
param **.servers[494].**.on_average_throughput 1
param **.servers[494]**.startTime 0.005000
param **.servers[494]**.endTime 0.025000
param **.servers[494].gen.on_cc 1
param **.servers[298].sink.on_cc 1
param **.servers[494].sink.on_cc 1
param **.servers[298].gen.on_cc 1
param **.servers[298]**.on_utilization 1
param **.servers[327]**.dstLid 221
param **.servers[327].app.msgLength 4194304B
param **.servers[327].app.msg2msgGap 1ns
param **.servers[327].app.msgNum 5
param **.servers[327].**.on_average_throughput 1
param **.servers[327]**.startTime 0.005000
param **.servers[327]**.endTime 0.025000
param **.servers[327].gen.on_cc 1
param **.servers[220].sink.on_cc 1
param **.servers[327].sink.on_cc 1
param **.servers[220].gen.on_cc 1
param **.servers[220]**.on_utilization 1
param **.servers[379]**.dstLid 610
param **.servers[379].app.msgLength 4194304B
param **.servers[379].app.msg2msgGap 1ns
param **.servers[379].app.msgNum 5
param **.servers[379].**.on_average_throughput 1
param **.servers[379]**.startTime 0.005000
param **.servers[379]**.endTime 0.025000
param **.servers[379].gen.on_cc 1
param **.servers[609].sink.on_cc 1
param **.servers[379].sink.on_cc 1
param **.servers[609].gen.on_cc 1
param **.servers[609]**.on_utilization 1
param **.servers[590]**.dstLid 706
param **.servers[590].app.msgLength 4194304B
param **.servers[590].app.msg2msgGap 1ns
param **.servers[590].app.msgNum 5
param **.servers[590].**.on_average_throughput 1
param **.servers[590]**.startTime 0.005000
param **.servers[590]**.endTime 0.025000
param **.servers[590].gen.on_cc 1
param **.servers[705].sink.on_cc 1
param **.servers[590].sink.on_cc 1
param **.servers[705].gen.on_cc 1
param **.servers[705]**.on_utilization 1
param **.servers[777]**.dstLid 683
param **.servers[777].app.msgLength 4194304B
param **.servers[777].app.msg2msgGap 1ns
param **.servers[777].app.msgNum 5
param **.servers[777].**.on_average_throughput 1
param **.servers[777]**.startTime 0.005000
param **.servers[777]**.endTime 0.025000
param **.servers[777].gen.on_cc 1
param **.servers[682].sink.on_cc 1
param **.servers[777].sink.on_cc 1
param **.servers[682].gen.on_cc 1
param **.servers[682]**.on_utilization 1
param **.servers[351]**.dstLid 574
param **.servers[351].app.msgLength 4194304B
param **.servers[351].app.msg2msgGap 1ns
param **.servers[351].app.msgNum 5
param **.servers[351].**.on_average_throughput 1
param **.servers[351]**.startTime 0.005000
param **.servers[351]**.endTime 0.025000
param **.servers[351].gen.on_cc 1
param **.servers[573].sink.on_cc 1
param **.servers[351].sink.on_cc 1
param **.servers[573].gen.on_cc 1
param **.servers[573]**.on_utilization 1
param **.servers[661]**.dstLid 860
param **.servers[661].app.msgLength 4194304B
param **.servers[661].app.msg2msgGap 1ns
param **.servers[661].app.msgNum 5
param **.servers[661].**.on_average_throughput 1
param **.servers[661]**.startTime 0.005000
param **.servers[661]**.endTime 0.025000
param **.servers[661].gen.on_cc 1
param **.servers[859].sink.on_cc 1
param **.servers[661].sink.on_cc 1
param **.servers[859].gen.on_cc 1
param **.servers[859]**.on_utilization 1
param **.servers[353]**.dstLid 15
param **.servers[353].app.msgLength 4194304B
param **.servers[353].app.msg2msgGap 1ns
param **.servers[353].app.msgNum 5
param **.servers[353].**.on_average_throughput 1
param **.servers[353]**.startTime 0.005000
param **.servers[353]**.endTime 0.025000
param **.servers[353].gen.on_cc 1
param **.servers[14].sink.on_cc 1
param **.servers[353].sink.on_cc 1
param **.servers[14].gen.on_cc 1
param **.servers[14]**.on_utilization 1
param **.servers[603]**.dstLid 185
param **.servers[603].app.msgLength 4194304B
param **.servers[603].app.msg2msgGap 1ns
param **.servers[603].app.msgNum 5
param **.servers[603].**.on_average_throughput 1
param **.servers[603]**.startTime 0.005000
param **.servers[603]**.endTime 0.025000
param **.servers[603].gen.on_cc 1
param **.servers[184].sink.on_cc 1
param **.servers[603].sink.on_cc 1
param **.servers[184].gen.on_cc 1
param **.servers[184]**.on_utilization 1
param **.servers[644]**.dstLid 43
param **.servers[644].app.msgLength 4194304B
param **.servers[644].app.msg2msgGap 1ns
param **.servers[644].app.msgNum 5
param **.servers[644].**.on_average_throughput 1
param **.servers[644]**.startTime 0.005000
param **.servers[644]**.endTime 0.025000
param **.servers[644].gen.on_cc 1
param **.servers[42].sink.on_cc 1
param **.servers[644].sink.on_cc 1
param **.servers[42].gen.on_cc 1
param **.servers[42]**.on_utilization 1
param **.servers[776]**.dstLid 91
param **.servers[776].app.msgLength 4194304B
param **.servers[776].app.msg2msgGap 1ns
param **.servers[776].app.msgNum 5
param **.servers[776].**.on_average_throughput 1
param **.servers[776]**.startTime 0.005000
param **.servers[776]**.endTime 0.025000
param **.servers[776].gen.on_cc 1
param **.servers[90].sink.on_cc 1
param **.servers[776].sink.on_cc 1
param **.servers[90].gen.on_cc 1
param **.servers[90]**.on_utilization 1
param **.servers[408]**.dstLid 993
param **.servers[408].app.msgLength 4194304B
param **.servers[408].app.msg2msgGap 1ns
param **.servers[408].app.msgNum 5
param **.servers[408].**.on_average_throughput 1
param **.servers[408]**.startTime 0.005000
param **.servers[408]**.endTime 0.025000
param **.servers[408].gen.on_cc 1
param **.servers[992].sink.on_cc 1
param **.servers[408].sink.on_cc 1
param **.servers[992].gen.on_cc 1
param **.servers[992]**.on_utilization 1
param **.servers[511]**.dstLid 956
param **.servers[511].app.msgLength 4194304B
param **.servers[511].app.msg2msgGap 1ns
param **.servers[511].app.msgNum 5
param **.servers[511].**.on_average_throughput 1
param **.servers[511]**.startTime 0.005000
param **.servers[511]**.endTime 0.025000
param **.servers[511].gen.on_cc 1
param **.servers[955].sink.on_cc 1
param **.servers[511].sink.on_cc 1
param **.servers[955].gen.on_cc 1
param **.servers[955]**.on_utilization 1
param **.servers[732]**.dstLid 574
param **.servers[732].app.msgLength 4194304B
param **.servers[732].app.msg2msgGap 1ns
param **.servers[732].app.msgNum 5
param **.servers[732].**.on_average_throughput 1
param **.servers[732]**.startTime 0.005000
param **.servers[732]**.endTime 0.025000
param **.servers[732].gen.on_cc 1
param **.servers[573].sink.on_cc 1
param **.servers[732].sink.on_cc 1
param **.servers[573].gen.on_cc 1
param **.servers[573]**.on_utilization 1
param **.servers[690]**.dstLid 974
param **.servers[690].app.msgLength 4194304B
param **.servers[690].app.msg2msgGap 1ns
param **.servers[690].app.msgNum 5
param **.servers[690].**.on_average_throughput 1
param **.servers[690]**.startTime 0.005000
param **.servers[690]**.endTime 0.025000
param **.servers[690].gen.on_cc 1
param **.servers[973].sink.on_cc 1
param **.servers[690].sink.on_cc 1
param **.servers[973].gen.on_cc 1
param **.servers[973]**.on_utilization 1
param **.servers[2]**.dstLid 83
param **.servers[2].app.msgLength 4194304B
param **.servers[2].app.msg2msgGap 1ns
param **.servers[2].app.msgNum 5
param **.servers[2].**.on_average_throughput 1
param **.servers[2]**.startTime 0.005000
param **.servers[2]**.endTime 0.025000
param **.servers[2].gen.on_cc 1
param **.servers[82].sink.on_cc 1
param **.servers[2].sink.on_cc 1
param **.servers[82].gen.on_cc 1
param **.servers[82]**.on_utilization 1
param **.servers[484]**.dstLid 845
param **.servers[484].app.msgLength 4194304B
param **.servers[484].app.msg2msgGap 1ns
param **.servers[484].app.msgNum 5
param **.servers[484].**.on_average_throughput 1
param **.servers[484]**.startTime 0.005000
param **.servers[484]**.endTime 0.025000
param **.servers[484].gen.on_cc 1
param **.servers[844].sink.on_cc 1
param **.servers[484].sink.on_cc 1
param **.servers[844].gen.on_cc 1
param **.servers[844]**.on_utilization 1
param **.servers[187]**.dstLid 137
param **.servers[187].app.msgLength 4194304B
param **.servers[187].app.msg2msgGap 1ns
param **.servers[187].app.msgNum 5
param **.servers[187].**.on_average_throughput 1
param **.servers[187]**.startTime 0.005000
param **.servers[187]**.endTime 0.025000
param **.servers[187].gen.on_cc 1
param **.servers[136].sink.on_cc 1
param **.servers[187].sink.on_cc 1
param **.servers[136].gen.on_cc 1
param **.servers[136]**.on_utilization 1
param **.servers[557]**.dstLid 397
param **.servers[557].app.msgLength 4194304B
param **.servers[557].app.msg2msgGap 1ns
param **.servers[557].app.msgNum 5
param **.servers[557].**.on_average_throughput 1
param **.servers[557]**.startTime 0.005000
param **.servers[557]**.endTime 0.025000
param **.servers[557].gen.on_cc 1
param **.servers[396].sink.on_cc 1
param **.servers[557].sink.on_cc 1
param **.servers[396].gen.on_cc 1
param **.servers[396]**.on_utilization 1
param **.servers[309]**.dstLid 860
param **.servers[309].app.msgLength 4194304B
param **.servers[309].app.msg2msgGap 1ns
param **.servers[309].app.msgNum 5
param **.servers[309].**.on_average_throughput 1
param **.servers[309]**.startTime 0.005000
param **.servers[309]**.endTime 0.025000
param **.servers[309].gen.on_cc 1
param **.servers[859].sink.on_cc 1
param **.servers[309].sink.on_cc 1
param **.servers[859].gen.on_cc 1
param **.servers[859]**.on_utilization 1
param **.servers[45]**.dstLid 860
param **.servers[45].app.msgLength 4194304B
param **.servers[45].app.msg2msgGap 1ns
param **.servers[45].app.msgNum 5
param **.servers[45].**.on_average_throughput 1
param **.servers[45]**.startTime 0.005000
param **.servers[45]**.endTime 0.025000
param **.servers[45].gen.on_cc 1
param **.servers[859].sink.on_cc 1
param **.servers[45].sink.on_cc 1
param **.servers[859].gen.on_cc 1
param **.servers[859]**.on_utilization 1
param **.servers[457]**.dstLid 904
param **.servers[457].app.msgLength 4194304B
param **.servers[457].app.msg2msgGap 1ns
param **.servers[457].app.msgNum 5
param **.servers[457].**.on_average_throughput 1
param **.servers[457]**.startTime 0.005000
param **.servers[457]**.endTime 0.025000
param **.servers[457].gen.on_cc 1
param **.servers[903].sink.on_cc 1
param **.servers[457].sink.on_cc 1
param **.servers[903].gen.on_cc 1
param **.servers[903]**.on_utilization 1
param **.servers[65]**.dstLid 815
param **.servers[65].app.msgLength 4194304B
param **.servers[65].app.msg2msgGap 1ns
param **.servers[65].app.msgNum 5
param **.servers[65].**.on_average_throughput 1
param **.servers[65]**.startTime 0.005000
param **.servers[65]**.endTime 0.025000
param **.servers[65].gen.on_cc 1
param **.servers[814].sink.on_cc 1
param **.servers[65].sink.on_cc 1
param **.servers[814].gen.on_cc 1
param **.servers[814]**.on_utilization 1
param **.servers[460]**.dstLid 137
param **.servers[460].app.msgLength 4194304B
param **.servers[460].app.msg2msgGap 1ns
param **.servers[460].app.msgNum 5
param **.servers[460].**.on_average_throughput 1
param **.servers[460]**.startTime 0.005000
param **.servers[460]**.endTime 0.025000
param **.servers[460].gen.on_cc 1
param **.servers[136].sink.on_cc 1
param **.servers[460].sink.on_cc 1
param **.servers[136].gen.on_cc 1
param **.servers[136]**.on_utilization 1
param **.servers[476]**.dstLid 755
param **.servers[476].app.msgLength 4194304B
param **.servers[476].app.msg2msgGap 1ns
param **.servers[476].app.msgNum 5
param **.servers[476].**.on_average_throughput 1
param **.servers[476]**.startTime 0.005000
param **.servers[476]**.endTime 0.025000
param **.servers[476].gen.on_cc 1
param **.servers[754].sink.on_cc 1
param **.servers[476].sink.on_cc 1
param **.servers[754].gen.on_cc 1
param **.servers[754]**.on_utilization 1
param **.servers[816]**.dstLid 802
param **.servers[816].app.msgLength 4194304B
param **.servers[816].app.msg2msgGap 1ns
param **.servers[816].app.msgNum 5
param **.servers[816].**.on_average_throughput 1
param **.servers[816]**.startTime 0.005000
param **.servers[816]**.endTime 0.025000
param **.servers[816].gen.on_cc 1
param **.servers[801].sink.on_cc 1
param **.servers[816].sink.on_cc 1
param **.servers[801].gen.on_cc 1
param **.servers[801]**.on_utilization 1
param **.servers[444]**.dstLid 103
param **.servers[444].app.msgLength 4194304B
param **.servers[444].app.msg2msgGap 1ns
param **.servers[444].app.msgNum 5
param **.servers[444].**.on_average_throughput 1
param **.servers[444]**.startTime 0.005000
param **.servers[444]**.endTime 0.025000
param **.servers[444].gen.on_cc 1
param **.servers[102].sink.on_cc 1
param **.servers[444].sink.on_cc 1
param **.servers[102].gen.on_cc 1
param **.servers[102]**.on_utilization 1
param **.servers[621]**.dstLid 579
param **.servers[621].app.msgLength 4194304B
param **.servers[621].app.msg2msgGap 1ns
param **.servers[621].app.msgNum 5
param **.servers[621].**.on_average_throughput 1
param **.servers[621]**.startTime 0.005000
param **.servers[621]**.endTime 0.025000
param **.servers[621].gen.on_cc 1
param **.servers[578].sink.on_cc 1
param **.servers[621].sink.on_cc 1
param **.servers[578].gen.on_cc 1
param **.servers[578]**.on_utilization 1
param **.servers[115]**.dstLid 221
param **.servers[115].app.msgLength 4194304B
param **.servers[115].app.msg2msgGap 1ns
param **.servers[115].app.msgNum 5
param **.servers[115].**.on_average_throughput 1
param **.servers[115]**.startTime 0.005000
param **.servers[115]**.endTime 0.025000
param **.servers[115].gen.on_cc 1
param **.servers[220].sink.on_cc 1
param **.servers[115].sink.on_cc 1
param **.servers[220].gen.on_cc 1
param **.servers[220]**.on_utilization 1
param **.servers[727]**.dstLid 993
param **.servers[727].app.msgLength 4194304B
param **.servers[727].app.msg2msgGap 1ns
param **.servers[727].app.msgNum 5
param **.servers[727].**.on_average_throughput 1
param **.servers[727]**.startTime 0.005000
param **.servers[727]**.endTime 0.025000
param **.servers[727].gen.on_cc 1
param **.servers[992].sink.on_cc 1
param **.servers[727].sink.on_cc 1
param **.servers[992].gen.on_cc 1
[...]
144	1927795 7204 89356690 123298592 0.011013572 0.013105462 200 2.548e-06 3.574e-06 0.000618380833 1.9259107142061e-09
145	1934999 16524 89362283 187467395 0.011014124921 0.017105056532 400 1.247633e-06 8.606054e-06 0.001467422035 6.3743457154303e-09
146	1951523 29466 89382832 248282870 0.011014438 0.021105062 800 1.124e-06 9.738088e-06 0.002032763851 7.364283807762e-09
147	1980989 7699 89393294 124225996 0.011015462 0.013160246088 200 2.548e-06 5.9564e-05 0.002026808759 6.3017144047621e-08
148	1988688 8187 89410044 123279180 0.011017159854 0.013104206786 200 1.014e-06 9.323854e-06 0.000727915295 3.7847892757741e-09
149	1996875 7698 89441263 124289346 0.011018536 0.013164344088 200 3.06e-06 6.2638e-05 0.002310580759 7.3295131160485e-08
150	2004573 434 90584141 279964882 0.011087725796 0.023375418594 10 0.00185605818 0.007185881229 0.032802889074 0.00013771794314401
151	2005007 436 92916489 270012821 0.011236761007 0.022621678496 10 0.001768004449 0.007525195607 0.031796581887 0.00013782326386415
152	2005443 1097 93729435 400547659 0.011290285907 0.035121869716 25 0.003629023951 0.008971631156 0.14178390524 0.00085183928619197
153	2006540 215 99229155 215509706 0.011646295595 0.01890471 5 0.001332691725 0.006645782595 0.013902382772 5.9353161307621e-05
154	2006755 435 99862990 262786024 0.011686226121 0.022112798764 10 0.001884288079 0.007174158546 0.03197960605 0.00013800820258541
155	2007190 870 102386242 372226822 0.011845099064 0.031601724713 20 0.003828247326 0.007549169412 0.103036371575 0.00055892860333029
156	2008060 1310 103470495 430927143 0.01191229837 0.040478341295 30 0.003557927146 0.009881370978 0.198298430389 0.0013565433472342
157	2009370 651 103616228 347600765 0.011921750957 0.029112331317 15 0.002459225575 0.00774409588 0.065377826452 0.00032665267413585
158	2010021 657 104463319 394020062 0.011974798252 0.034241948706 15 0.003872225386 0.008226826257 0.082340558725 0.00047255122847534
159	2010678 656 104580143 372846960 0.01198148655 0.031672354269 15 0.004081291263 0.008191824677 0.078629081878 0.00043804808806033
160	2011334 218 104589460 250329819 0.011982337662 0.02124221208 5 0.001867763163 0.006981824662 0.016241239208 7.0950895347368e-05
161	2011552 653 105510637 327266306 0.012040608864 0.027325680227 15 0.002525974043 0.007237575 0.061475397991 0.00028918641682144
162	2012205 439 105932520 294381637 0.012066398625 0.024556957864 10 0.001758901621 0.007553620007 0.035118657827 0.0001616281973807
163	2012644 659 109897076 371787230 0.012310647501 0.031554204453 15 0.002368755496 0.007747137354 0.070394422021 0.00037793539459692
164	2013303 219 109938064 245087309 0.012312795096 0.020895537291 5 0.001783517477 0.007312282096 0.015895125502 7.221318993676e-05
165	2013522 660 110574445 362776271 0.012350273857 0.030601197614 15 0.003569435002 0.007502661938 0.075906138335 0.000407752641454
166	2014182 869 111456527 376616870 0.012403076171 0.032100713192 20 0.003153146274 0.007691863 0.102661558315 0.00056639902688057
167	2015051 874 112555519 372627036 0.01247069525 0.031647052798 20 0.002713859223 0.008488063764 0.096899202446 0.00052591519453608
168	2015925 876 113147083 377900341 0.012506769946 0.032253499658 20 0.003499864684 0.007690873748 0.102660570018 0.00056214772492868
169	2016801 873 114268189 377794475 0.012576549108 0.032240056206 20 0.002899566488 0.007651158276 0.101358274015 0.00055527512805498
170	2017674 657 115560344 395238059 0.012654856976 0.034397295787 15 0.004598488256 0.007820732715 0.086054501868 0.00051030064160068
171	2018331 218 117386515 341478946 0.01276400071 0.028565087308 5 0.003677763498 0.00776348771 0.023563628837 0.00012297360497597
172	2018549 1074 117933859 411705351 0.01279679 0.0368843454 25 0.004173813764 0.00808766704 0.150349066786 0.00093647890237612
173	2019623 437 118165364 404914798 0.012810677134 0.035771299315 10 0.004522706083 0.007956016819 0.059443120649 0.00036601896063116
174	2020060 652 118589438 405049608 0.012836829973 0.035793818294 15 0.004417316926 0.008539685 0.087174659597 0.00053278285466658
175	2020712 440 119164453 401705573 0.012870639973 0.035290655934 10 0.003811627301 0.008447740466 0.059970373317 0.00037617190647446
176	2021152 871 119175585 412910728 0.012871407098 0.037086477965 20 0.005065046364 0.008321906774 0.122722604424 0.00077613327318055
177	2022023 437 119312126 408199562 0.012879621698 0.036303379086 10 0.00462814797 0.008691150489 0.061724268954 0.00039545016752671
178	2022460 1312 120285269 430602383 0.012937415766 0.040409466342 30 0.003446632857 0.009333997357 0.200750017648 0.0014003029539172
179	2023772 652 120970986 406296370 0.012977385542 0.035993040543 15 0.004670003863 0.008583511947 0.088521796584 0.00054488784392279
180	2024424 22019 121554345 276674804 0.013011524 0.023105509189 600 1.012e-06 8.118e-06 0.001102023085 2.9902539451066e-09
181	2046443 7792 121554347 156208232 0.013011524 0.01510352546 200 1.012e-06 2.478799e-06 0.000287910529 4.2256328606363e-10
182	2054235 14306 121554349 187436451 0.013011524 0.017103924 400 1.012e-06 2.038e-06 0.000506543341 6.6816971444954e-10
183	2068541 14611 121554351 276654153 0.013011524 0.023103412 400 1.012e-06 1.705746e-06 0.000439725651 4.963490302647e-10
184	2083152 7158 121554353 156206713 0.013011524 0.015103412 200 1.012e-06 1.524e-06 0.000203518377 2.0761115871413e-10
185	2090310 7824 121559161 156213431 0.013011878 0.015103924 200 1.012e-06 2.38472e-06 0.000303211104 4.7835615311726e-10
186	2098134 8144 121560232 156225281 0.013011953297 0.01510480277 200 1.016494e-06 2.55e-06 0.000356476143 6.6300257171634e-10
187	2106278 15808 121561408 276659843 0.013012036 0.023103924 400 1.012e-06 5.002878e-06 0.000725032809 1.5617983874292e-09
188	2122086 14886 121561410 276696708 0.013012036 0.023106023189 400 1.524e-06 9.654e-06 0.001176284111 4.4729443984735e-09
189	2136972 7756 121561900 156213419 0.013012084954 0.015103924 200 1.012e-06 2.065182e-06 0.000282846457 4.1635787261513e-10
190	2144728 8116 121563860 156214914 0.013012240711 0.015104035731 200 1.032178e-06 2.526505e-06 0.000349958134 6.2982096758974e-10
191	2152844 8121 121565921 156214560 0.01301239 0.015104011323 200 1.281626e-06 3.451123e-06 0.000447758313 1.0471137937311e-09
192	2160965 7231 121568269 156220654 0.013012548 0.015104436 200 1.012e-06 2.58367e-06 0.000327334392 5.50186354079e-10
193	2168196 7191 121568277 156220662 0.013012548 0.015104436 200 2.036e-06 2.55e-06 0.000410836428 8.4540971519082e-10
194	2175387 7286 121568279 156220666 0.013012548 0.015104436 200 2.036e-06 2.55e-06 0.000425948503 9.1374243386726e-10
195	2182673 15314 121568281 187436461 0.013012548 0.017103924 400 1.049938e-06 2.854e-06 0.000738372071 1.4394430710857e-09
196	2197987 16012 121569634 248275733 0.013012657498 0.021104378717 400 1.042037e-06 5.03073e-06 0.000982174575 2.6037304362848e-09
197	2213999 14506 121592279 248264611 0.01301306 0.021103414 400 1.012e-06 1.2136e-05 0.000671972485 1.5693121234106e-09
198	2228505 7084 121592281 156227263 0.01301306 0.015104948 200 2.548e-06 3.062e-06 0.000512146851 1.3125547033298e-09
199	2235589 15538 121593960 248276592 0.01301317812 0.021104436 400 2.036e-06 3.574e-06 0.001010388137 2.6098222207446e-09
200	2251127 16284 121599722 187502265 0.013013565753 0.01710723373 400 1.012e-06 8.118e-06 0.001310523444 5.3472520474927e-09
201	2267411 24480 121601708 276698185 0.01301375087 0.023106188131 600 1.014e-06 6.373192e-06 0.001991339713 7.3138376989768e-09
202	2291891 8308 121610016 156217664 0.013014433844 0.015104252416 200 1.531969e-06 1.5187467e-05 0.000692143916 3.3546291567001e-09
203	2300199 7789 121611468 156276914 0.01301454811 0.01510689 200 1.524e-06 1.0525858e-05 0.000804162337 3.767821642709e-09
204	2307988 8119 121616499 156264341 0.013014952 0.015106061323 200 1.722816e-06 6.507507e-06 0.000671104173 2.3805207829987e-09
205	2316107 7956 121637865 156245582 0.013016816088 0.015105972 200 3.06e-06 1.1608088e-05 0.000816710599 3.8889822679586e-09
206	2324063 24633 121663223 248304248 0.013017501282 0.021106376 600 1.012e-06 8.548483e-06 0.001985604095 8.2676787342341e-09
207	2348696 15907 121672212 187480942 0.013018283543 0.017105708 400 1.012e-06 1.8610418e-05 0.001850159389 1.1501402313379e-08
208	2364603 217 121859607 398474556 0.01302889011 0.034836438291 5 0.005131850837 0.00802837711 0.029833098091 0.00018370007545951
209	2364820 871 123866425 426923083 0.01313822687 0.039688370827 20 0.005467680625 0.008464409799 0.131174821551 0.00088118581874617
210	2365691 1094 124720957 409167301 0.013189958088 0.036463629125 25 0.004199752874 0.009221817862 0.151372288846 0.00096778877802678
211	2366785 1098 125468691 430541448 0.013236741207 0.040396772209 25 0.004457937864 0.008716500704 0.16516161833 0.0011324962770446
212	2367883 1308 126564493 432939190 0.013305053699 0.040929751226 30 0.004887931588 0.00863189288 0.208963108544 0.0014872550702977
213	2369191 217 126638805 420679618 0.01330935516 0.038485918957 5 0.004767554889 0.00830884216 0.03348042432 0.00023070226688757
214	2369408 659 127569987 420272471 0.013367179908 0.038407770984 15 0.004782883392 0.009849242793 0.099297273244 0.00068178094469314
215	2370067 1315 149069772 474372790 0.014683193536 0.05121173366 30 0.00704924907 0.010679142781 0.266688789211 0.0023995903168507
216	2371382 438 149747929 465036601 0.014724351474 0.048766556155 10 0.00724419529 0.009786353685 0.085851802812 0.00074476842776385
217	2371820 6962 154533357 187427027 0.015011324 0.017103212 200 8.12e-07 1.324e-06 0.00016374873 1.346439657529e-10
218	2378782 15234 154533366 218743828 0.015011324 0.019106563942 400 8.12e-07 6.509558e-06 0.000738665569 2.070129736072e-09
219	2394016 14583 154536010 276667862 0.015011524 0.023104748657 400 1.012e-06 2.869821e-06 0.000648538362 1.2005817680273e-09
220	2408599 14611 154536012 218705779 0.015011524 0.019103924 400 1.012e-06 1.903747e-06 0.000444375159 5.0875935122128e-10
221	2423210 7386 154536014 187442959 0.015011524 0.017104420502 200 1.012e-06 2.020502e-06 0.00023131064 2.7738628314641e-10
222	2430596 7174 154536016 187429960 0.015011524 0.017103412 200 1.012e-06 1.526e-06 0.000206210648 2.1423760372259e-10
223	2437770 7175 154536018 187429962 0.015011524 0.017103412 200 1.012e-06 1.526e-06 0.000203465293 2.0734366842635e-10
224	2444945 14460 154558852 276664721 0.015011878 0.023104436 400 1.012e-06 2.420451e-06 0.000587267189 9.5120595003329e-10
225	2459405 7724 154558945 187443120 0.015011885651 0.017104436 200 1.012e-06 2.038e-06 0.000281560392 4.1546508921769e-10
226	2467129 15869 154561209 276665195 0.015012036 0.023104491109 400 1.012e-06 6.863191e-06 0.00091032808 2.2742934366988e-09
227	2482998 8120 154561213 187509595 0.015012036 0.017107821576 200 1.034274e-06 5.449485e-06 0.000414265338 9.9335487707585e-10
228	2491118 22072 154561245 218727447 0.015012038 0.019105445193 600 1.524e-06 1.0919576e-05 0.001329796774 3.7662125690811e-09
229	2513190 8229 154565493 187431859 0.015012332124 0.0171035623 200 1.1623e-06 6.133031e-06 0.000523046612 1.6415734570552e-09
230	2521419 14487 154568243 218718952 0.01501255 0.01910495 400 2.036e-06 3.062e-06 0.000882254712 1.9692174424158e-09
231	2535906 7164 154568245 187443126 0.01501255 0.017104436 200 2.036e-06 2.55e-06 0.000414337606 8.6162604767607e-10
232	2543070 14920 154568247 276659837 0.01501255 0.023103924 400 1.012e-06 2.55e-06 0.000688030578 1.2392136061556e-09
233	2557990 7173 154568255 187466071 0.01501255 0.017104948 200 1.524e-06 2.55e-06 0.000400805844 8.0951257529448e-10
234	2565163 16285 154578712 187471387 0.015013347358 0.017105231015 400 1.012e-06 2.7335358e-05 0.001644632842 1.6231016337436e-08
235	2581448 7932 154597446 187475769 0.015014975626 0.017105462 200 1.524e-06 1.4788982e-05 0.00060264619 2.546900880901e-09
236	2589380 1098 169833613 504738601 0.015983023839 0.060045569905 25 0.008194216803 0.01221106549 0.26486048664 0.0028401910770132
237	2590478 1094 172524674 503026294 0.016156530998 0.05951734788 25 0.00956860041 0.012102703569 0.269332751509 0.0029131339504033
238	2591572 7185 185866934 218681748 0.017011526 0.019103412 200 1.012e-06 1.527e-06 0.00020459849 2.1015221447939e-10
239	2598757 7587 185866938 218705584 0.017011526 0.0191039122 200 1.012e-06 2.226e-06 0.000258543543 3.473317045665e-10
240	2606344 7327 185866944 218681754 0.017011526 0.019103412 200 1.012e-06 1.526e-06 0.000220025732 2.4829704527385e-10
241	2613671 7168 185866946 218681756 0.017011526 0.019103412 200 1.012e-06 1.526e-06 0.000204906534 2.1104965319858e-10
242	2620839 7170 185866948 218705775 0.017011526 0.019103924 200 1.012e-06 1.524e-06 0.000205423075 2.1238745425167e-10
243	2628009 7402 185866950 218705783 0.017011526 0.019103924 200 1.012e-06 2.038e-06 0.000231688538 2.7776664647495e-10
244	2635411 7366 185869888 218705781 0.017011765905 0.019103924 200 1.012e-06 1.725449e-06 0.000237586719 2.9271471570224e-10
245	2642777 7121 185871058 218678969 0.017011838 0.019103212 200 8.12e-07 1.326e-06 0.000180818507 1.7034931110297e-10
246	2649898 7344 185872995 218683697 0.017011978354 0.019103566671 200 1.012e-06 1.947458e-06 0.000223902397 2.5847327707764e-10
247	2657242 14606 185873739 218719102 0.017012036 0.019104969666 400 1.20232e-06 3.06e-06 0.000724697012 1.345084557807e-09
248	2671848 14352 185873743 276659841 0.017012036 0.023103924 400 1.524e-06 2.55e-06 0.000614512384 9.4655470492414e-10
249	2686200 8170 185874333 218710347 0.01701208989 0.019104222313 200 1.014e-06 2.515569e-06 0.000353597897 6.3807274905273e-10
250	2694370 8020 185876839 218705787 0.017012304379 0.019103924 200 1.012e-06 2.208971e-06 0.000359491481 6.6034669897477e-10
251	2702390 7566 185880152 218712905 0.017012548 0.019104438 200 1.012e-06 2.467165e-06 0.000340828891 5.9802940482249e-10
252	2709956 7160 185880158 218712901 0.017012548 0.019104438 200 2.036e-06 2.548e-06 0.00040838962 8.3430608970372e-10
253	2717116 7437 185880162 218711948 0.017012548 0.019104347686 200 1.524e-06 2.700881e-06 0.0003438441 6.0508268018914e-10
254	2724553 14498 185884901 248276594 0.017012973788 0.021104436 400 2.036e-06 2.55e-06 0.000837686693 1.7633566124868e-09
255	2739051 7881 185885034 218715390 0.017012989282 0.019104657904 200 2.036e-06 3.581563e-06 0.000517903887 1.3771804358759e-09
256	2746932 7819 185885774 218718792 0.017013055576 0.019104933193 200 1.524e-06 6.287576e-06 0.00043805789 1.0793799402337e-09
257	2754751 7427 185885883 218718030 0.01701306 0.019104859686 200 2.036e-06 3.214881e-06 0.000445670617 1.0053584715827e-09
258	2762178 8163 185890805 218720100 0.017013512354 0.01910505661 200 1.012e-06 3.7451458e-05 0.000901624187 1.2609283874862e-08
259	2770341 8152 185891551 218749914 0.017013572 0.019107124883 200 1.090282e-06 5.504883e-06 0.000503862593 1.3831851978537e-09
260	2778493 8303 185937561 218717956 0.017016134569 0.01910485067 200 1.012e-06 9.989353e-06 0.000758358481 3.8636657786987e-09
261	2786796 6951 217140139 248261766 0.019011324 0.021103214 200 8.12e-07 8.14e-07 0.000162481 1.32000505e-10
262	2793747 6951 217140146 248261774 0.019011324 0.021103214 200 8.12e-07 8.14e-07 0.000162481 1.32000505e-10
263	2800698 7195 217142728 248264613 0.019011524 0.021103414 200 1.012e-06 1.526e-06 0.000208014468 2.1870818861745e-10
264	2807893 7427 217142732 248268889 0.019011524 0.021103801614 200 1.012e-06 1.526e-06 0.000228317491 2.6874080312447e-10
265	2815320 7332 217146608 248264615 0.019011850332 0.021103414 200 1.012e-06 1.714261e-06 0.000225639265 2.6272136101868e-10
266	2822652 16256 217148162 276659829 0.019011981641 0.023103924 400 1.012e-06 6.316e-06 0.000945703057 2.7120426944949e-09
267	2838908 7864 217148954 248269166 0.019012036 0.021103825017 200 1.012e-06 2.879623e-06 0.000287557904 4.2904836619512e-10
268	2846772 7168 217148960 248270422 0.019012036 0.021103924 200 1.524e-06 2.036e-06 0.000306065941 4.6881173938185e-10
269	2853940 7459 217148964 248264619 0.019012036 0.021103414 200 1.012e-06 2.480031e-06 0.000245447004 3.1394600311092e-10
270	2861399 7858 217151184 248270420 0.019012209372 0.021103924 200 1.524e-06 3.062e-06 0.000412312264 8.7015775972594e-10
271	2869257 7194 217155121 248276584 0.019012548 0.021104436 200 2.036e-06 3.054881e-06 0.000412182214 8.5298229133144e-10
272	2876451 7211 217155123 248270414 0.019012548 0.021103924 200 1.524e-06 2.317714e-06 0.000344296349 6.0544974139645e-10
273	2883662 7479 217155127 248282024 0.019012548 0.021104948 200 1.014e-06 3.574e-06 0.000448089632 1.0373157071624e-09
274	2891141 8125 217155580 248268068 0.019012598342 0.021103746293 200 1.012e-06 3.315539e-06 0.000382496883 7.661951935927e-10
275	2899266 7961 217157811 248281325 0.01901283499 0.021104890717 200 1.770753e-06 3.803808e-06 0.000530589018 1.4253611047511e-09
276	2907227 15297 217159525 248276590 0.019012992631 0.021104436 400 1.524e-06 6.224631e-06 0.000915394124 2.3124483336323e-09
277	2922524 8116 217160355 248339863 0.019013067595 0.021107853115 200 1.012e-06 6.643249e-06 0.000518899203 1.6325896328827e-09
278	2930640 8366 217163256 248339753 0.019013333942 0.021107839343 200 1.568539e-06 6.935599e-06 0.000683744167 2.6747191574622e-09
279	2939006 8178 217165762 248273914 0.019013572 0.021104245451 200 1.012e-06 7.148883e-06 0.000429963028 1.0569380916284e-09
280	2947184 8202 217183662 248282326 0.019013642857 0.021104997376 200 1.012e-06 7.37822e-06 0.000566566549 1.9859811472248e-09
281	2955386 16005 217184523 276669802 0.01901370695 0.023104948 400 1.012e-06 6.218616e-06 0.000872536219 2.416985937653e-09
282	2971391 6970 246776997 276651402 0.021011324 0.023103212 200 8.12e-07 1.25592e-06 0.000163499912 1.3405064292243e-10
283	2978361 7153 246780035 276654141 0.021011524 0.023103412 200 1.012e-06 1.524e-06 0.000203415489 2.0731334599912e-10
284	2985514 7173 246780039 276654143 0.021011524 0.023103412 200 1.012e-06 1.524e-06 0.000206588277 2.1510431660827e-10
285	2992687 7181 246780041 276654147 0.021011524 0.023103412 200 1.012e-06 1.526e-06 0.000205557094 2.1257182139236e-10
286	2999868 7748 246780043 276654149 0.021011524 0.023103412 200 1.012e-06 2.081693e-06 0.000286497207 4.3292459858655e-10
287	3007616 7189 246780045 276654151 0.021011524 0.023103412 200 1.012e-06 1.526e-06 0.000207026357 2.1623831902911e-10
288	3014805 7148 246780049 276654155 0.021011524 0.023103412 200 1.012e-06 1.526e-06 0.000203643 2.07886533e-10
289	3021953 7443 246780051 276654157 0.021011524 0.023103412 200 1.012e-06 1.526e-06 0.000229131924 2.704445635714e-10
290	3029396 7348 246780055 276659833 0.021011524 0.023103924 200 1.012e-06 2.499604e-06 0.000303417498 4.7491529822099e-10
291	3036744 14311 246786321 276664713 0.021012036 0.023104436 400 1.524e-06 2.038e-06 0.000712294 1.29464825e-09
292	3051055 7269 246786325 276659827 0.021012036 0.023103924 200 1.524e-06 2.55e-06 0.000341605648 5.9729940722621e-10
293	3058324 7510 246786339 276659835 0.021012036 0.023103924 200 1.012e-06 2.038e-06 0.000302635567 4.7161320031102e-10
294	3065834 8302 246791155 276716714 0.021012461888 0.023108418128 200 1.012e-06 7.296505e-06 0.000617347275 2.4631984166825e-09
295	3074136 7091 246809958 276664715 0.021012548 0.023104436 200 1.524e-06 3.574e-06 0.000510311 1.340656485e-09
296	3081227 7777 246809968 276662471 0.021012548 0.023104236657 200 1.524e-06 2.848906e-06 0.000362709578 6.7503913615087e-10
297	3089004 7684 246809970 276670336 0.021012548 0.023104997189 200 2.036e-06 6.336e-06 0.000531505923 1.5139607981897e-09
298	3096688 7422 246810020 276664727 0.02101255 0.023104436 200 1.108963e-06 3.011604e-06 0.000408690306 8.4412100776566e-10
299	3104110 8252 246810878 276664717 0.021012629272 0.023104436 200 1.012e-06 7.151272e-06 0.000544743341 1.977246367891e-09
300	3112362 7084 246815959 276674295 0.021013062 0.02310546 200 1.524e-06 3.574e-06 0.000545152 1.515126082e-09
301	3119446 7127 246820858 276669794 0.021013574 0.023104948 200 1.524e-06 3.062e-06 0.000464727 1.116413131e-09
302	3126573 7099 246820860 276674307 0.021013574 0.02310546 200 3.06e-06 3.574e-06 0.000615603908 1.8964123816503e-09

