version 2
run General-0-20200526-20:17:28-194745
attr configname General
attr datetime 20200526-20:17:28
attr experiment General
attr inifile examples/evaluation_fattree128/fat-tree-rrcc.ini
attr iterationvars ""
attr iterationvarsf ""
attr measurement ""
attr network ib_model.examples.evaluation_fattree128.fat_tree_128
attr processid 194745
attr repetition 0
attr replication #0
attr resultdir results
attr runnumber 0
attr seedset 0
param **.servers[0].srcLid 1
param **.servers[1].srcLid 2
param **.servers[2].srcLid 3
param **.servers[3].srcLid 4
param **.servers[4].srcLid 5
param **.servers[5].srcLid 6
param **.servers[6].srcLid 7
param **.servers[7].srcLid 8
param **.servers[8].srcLid 9
param **.servers[9].srcLid 10
param **.servers[10].srcLid 11
param **.servers[11].srcLid 12
param **.servers[12].srcLid 13
param **.servers[13].srcLid 14
param **.servers[14].srcLid 15
param **.servers[15].srcLid 16
param **.servers[16].srcLid 17
param **.servers[17].srcLid 18
param **.servers[18].srcLid 19
param **.servers[19].srcLid 20
param **.servers[20].srcLid 21
param **.servers[21].srcLid 22
param **.servers[22].srcLid 23
param **.servers[23].srcLid 24
param **.servers[24].srcLid 25
param **.servers[25].srcLid 26
param **.servers[26].srcLid 27
param **.servers[27].srcLid 28
param **.servers[28].srcLid 29
param **.servers[29].srcLid 30
param **.servers[30].srcLid 31
param **.servers[31].srcLid 32
param **.servers[32].srcLid 33
param **.servers[33].srcLid 34
param **.servers[34].srcLid 35
param **.servers[35].srcLid 36
param **.servers[36].srcLid 37
param **.servers[37].srcLid 38
param **.servers[38].srcLid 39
param **.servers[39].srcLid 40
param **.servers[40].srcLid 41
param **.servers[41].srcLid 42
param **.servers[42].srcLid 43
param **.servers[43].srcLid 44
param **.servers[44].srcLid 45
param **.servers[45].srcLid 46
param **.servers[46].srcLid 47
param **.servers[47].srcLid 48
param **.servers[48].srcLid 49
param **.servers[49].srcLid 50
param **.servers[50].srcLid 51
param **.servers[51].srcLid 52
param **.servers[52].srcLid 53
param **.servers[53].srcLid 54
param **.servers[54].srcLid 55
param **.servers[55].srcLid 56
param **.servers[56].srcLid 57
param **.servers[57].srcLid 58
param **.servers[58].srcLid 59
param **.servers[59].srcLid 60
param **.servers[60].srcLid 61
param **.servers[61].srcLid 62
param **.servers[62].srcLid 63
param **.servers[63].srcLid 64
param **.servers[64].srcLid 65
param **.servers[65].srcLid 66
param **.servers[66].srcLid 67
param **.servers[67].srcLid 68
param **.servers[68].srcLid 69
param **.servers[69].srcLid 70
param **.servers[70].srcLid 71
param **.servers[71].srcLid 72
param **.servers[72].srcLid 73
param **.servers[73].srcLid 74
param **.servers[74].srcLid 75
param **.servers[75].srcLid 76
param **.servers[76].srcLid 77
param **.servers[77].srcLid 78
param **.servers[78].srcLid 79
param **.servers[79].srcLid 80
param **.servers[80].srcLid 81
param **.servers[81].srcLid 82
param **.servers[82].srcLid 83
param **.servers[83].srcLid 84
param **.servers[84].srcLid 85
param **.servers[85].srcLid 86
param **.servers[86].srcLid 87
param **.servers[87].srcLid 88
param **.servers[88].srcLid 89
param **.servers[89].srcLid 90
param **.servers[90].srcLid 91
param **.servers[91].srcLid 92
param **.servers[92].srcLid 93
param **.servers[93].srcLid 94
param **.servers[94].srcLid 95
param **.servers[95].srcLid 96
param **.servers[96].srcLid 97
param **.servers[97].srcLid 98
param **.servers[98].srcLid 99
param **.servers[99].srcLid 100
param **.servers[100].srcLid 101
param **.servers[101].srcLid 102
param **.servers[102].srcLid 103
param **.servers[103].srcLid 104
param **.servers[104].srcLid 105
param **.servers[105].srcLid 106
param **.servers[106].srcLid 107
param **.servers[107].srcLid 108
param **.servers[108].srcLid 109
param **.servers[109].srcLid 110
param **.servers[110].srcLid 111
param **.servers[111].srcLid 112
param **.servers[112].srcLid 113
param **.servers[113].srcLid 114
param **.servers[114].srcLid 115
param **.servers[115].srcLid 116
param **.servers[116].srcLid 117
param **.servers[117].srcLid 118
param **.servers[118].srcLid 119
param **.servers[119].srcLid 120
param **.servers[120].srcLid 121
param **.servers[121].srcLid 122
param **.servers[122].srcLid 123
param **.servers[123].srcLid 124
param **.servers[124].srcLid 125
param **.servers[125].srcLid 126
param **.servers[126].srcLid 127
param **.servers[127].srcLid 128
param **.flitSize 2048B
param **.width 4
param **.speed 10Gbps
param **.maxVL 1
param **.sink.hiccupDuration 0.001us
param **.sink.hiccupDelay 10000us
param **.sink.repFirstPackets 0
param **.obuf.credMinTime 4.096us
param **H_**.obuf.size 5
param **.ibuf.lossyMode false
param **.ISWDelay 50ns
param **.VSWDelay 50ns
param **SW**.vlarb.coreFreq 1200MHz
param **H_**.vlarb.coreFreq 1000MHz
param **SW**.vlarb.busWidth 24B
param **H_**.vlarb.busWidth 16B
param **.vlarb.vlHighLimit 16
param **.vlarb.highVLArbEntries "\"0:1 1:20 2:40 3:80\""
param **.vlarb.lowVLArbEntries "\"0:1 1:20 2:40 3:80\""
param **.vlarb.useFCFSRQArb false
param **.pktfwd.AdaptMode "\"none\""
param **.pktfwd.LIDBindTime 2us
param **.pktfwd.TQBusy1Thd 20
param **.pktfwd.TQBusy2Thd 40
param **.pktfwd.TQBusy3Thd 80
param **.pktfwd.ARAdaptThd 4
param **.pktfwd.OPSelAlgo "\"greedy\""
param **.pktfwd.GreedyRandSize 3
param **.pktfwd.statRepTime 10us
param **.pktfwd.OPSelOffsetByDLID 0
param **.L1_switches[0]**.fdbIndex 0
param **.L1_switches[1]**.fdbIndex 1
param **.L1_switches[2]**.fdbIndex 2
param **.L1_switches[3]**.fdbIndex 3
param **.L1_switches[4]**.fdbIndex 4
param **.L1_switches[5]**.fdbIndex 5
param **.L1_switches[6]**.fdbIndex 6
param **.L1_switches[7]**.fdbIndex 7
param **.L1_switches[8]**.fdbIndex 8
param **.L1_switches[9]**.fdbIndex 9
param **.L1_switches[10]**.fdbIndex 10
param **.L1_switches[11]**.fdbIndex 11
param **.L1_switches[12]**.fdbIndex 12
param **.L1_switches[13]**.fdbIndex 13
param **.L1_switches[14]**.fdbIndex 14
param **.L1_switches[15]**.fdbIndex 15
param **.L1_switches[16]**.fdbIndex 16
param **.L1_switches[17]**.fdbIndex 17
param **.L1_switches[18]**.fdbIndex 18
param **.L1_switches[19]**.fdbIndex 19
param **.L1_switches[20]**.fdbIndex 20
param **.L1_switches[21]**.fdbIndex 21
param **.L1_switches[22]**.fdbIndex 22
param **.L1_switches[23]**.fdbIndex 23
param **.L1_switches[24]**.fdbIndex 24
param **.L1_switches[25]**.fdbIndex 25
param **.L1_switches[26]**.fdbIndex 26
param **.L1_switches[27]**.fdbIndex 27
param **.L1_switches[28]**.fdbIndex 28
param **.L1_switches[29]**.fdbIndex 29
param **.L1_switches[30]**.fdbIndex 30
param **.L1_switches[31]**.fdbIndex 31
param **.L2_switches[0]**.fdbIndex 32
param **.L2_switches[1]**.fdbIndex 33
param **.L2_switches[2]**.fdbIndex 34
param **.L2_switches[3]**.fdbIndex 35
param **.L2_switches[4]**.fdbIndex 36
param **.L2_switches[5]**.fdbIndex 37
param **.L2_switches[6]**.fdbIndex 38
param **.L2_switches[7]**.fdbIndex 39
param **.L2_switches[8]**.fdbIndex 40
param **.L2_switches[9]**.fdbIndex 41
param **.L2_switches[10]**.fdbIndex 42
param **.L2_switches[11]**.fdbIndex 43
param **.L2_switches[12]**.fdbIndex 44
param **.L2_switches[13]**.fdbIndex 45
param **.L2_switches[14]**.fdbIndex 46
param **.L2_switches[15]**.fdbIndex 47
param **.L2_switches[16]**.fdbIndex 48
param **.L2_switches[17]**.fdbIndex 49
param **.L2_switches[18]**.fdbIndex 50
param **.L2_switches[19]**.fdbIndex 51
param **.L2_switches[20]**.fdbIndex 52
param **.L2_switches[21]**.fdbIndex 53
param **.L2_switches[22]**.fdbIndex 54
param **.L2_switches[23]**.fdbIndex 55
param **.L2_switches[24]**.fdbIndex 56
param **.L2_switches[25]**.fdbIndex 57
param **.L2_switches[26]**.fdbIndex 58
param **.L2_switches[27]**.fdbIndex 59
param **.L2_switches[28]**.fdbIndex 60
param **.L2_switches[29]**.fdbIndex 61
param **.L2_switches[30]**.fdbIndex 62
param **.L2_switches[31]**.fdbIndex 63
param **.L3_switches[0]**.fdbIndex 64
param **.L3_switches[1]**.fdbIndex 65
param **.L3_switches[2]**.fdbIndex 66
param **.L3_switches[3]**.fdbIndex 67
param **.L3_switches[4]**.fdbIndex 68
param **.L3_switches[5]**.fdbIndex 69
param **.L3_switches[6]**.fdbIndex 70
param **.L3_switches[7]**.fdbIndex 71
param **.L3_switches[8]**.fdbIndex 72
param **.L3_switches[9]**.fdbIndex 73
param **.L3_switches[10]**.fdbIndex 74
param **.L3_switches[11]**.fdbIndex 75
param **.L3_switches[12]**.fdbIndex 76
param **.L3_switches[13]**.fdbIndex 77
param **.L3_switches[14]**.fdbIndex 78
param **.L3_switches[15]**.fdbIndex 79
param **.servers[97]**.dstLid 117
param **.servers[97].app.msgLength 4194304B
param **.servers[97].app.msgNum 5
param **.servers[97].app.msg2msgGap 1ns
param **.servers[97].**.on_average_throughput 1
param **.servers[97]**.startTime 0.005000
param **.servers[97]**.endTime 0.025000
param **.servers[97].gen.on_newcc 1
param **.servers[116].sink.on_newcc 1
param **.servers[97].sink.on_newcc 1
param **.servers[116].gen.on_newcc 1
param **.servers[116]**.on_utilization 1
param **.servers[61]**.dstLid 105
param **.servers[61].app.msgLength 4194304B
param **.servers[61].app.msgNum 5
param **.servers[61].app.msg2msgGap 1ns
param **.servers[61].**.on_average_throughput 1
param **.servers[61]**.startTime 0.005000
param **.servers[61]**.endTime 0.025000
param **.servers[61].gen.on_newcc 1
param **.servers[104].sink.on_newcc 1
param **.servers[61].sink.on_newcc 1
param **.servers[104].gen.on_newcc 1
param **.servers[104]**.on_utilization 1
param **.servers[91]**.dstLid 40
param **.servers[91].app.msgLength 4194304B
param **.servers[91].app.msgNum 5
param **.servers[91].app.msg2msgGap 1ns
param **.servers[91].**.on_average_throughput 1
param **.servers[91]**.startTime 0.005000
param **.servers[91]**.endTime 0.025000
param **.servers[91].gen.on_newcc 1
param **.servers[39].sink.on_newcc 1
param **.servers[91].sink.on_newcc 1
param **.servers[39].gen.on_newcc 1
param **.servers[39]**.on_utilization 1
param **.servers[1]**.dstLid 27
param **.servers[1].app.msgLength 4194304B
param **.servers[1].app.msgNum 5
param **.servers[1].app.msg2msgGap 1ns
param **.servers[1].**.on_average_throughput 1
param **.servers[1]**.startTime 0.005000
param **.servers[1]**.endTime 0.025000
param **.servers[1].gen.on_newcc 1
param **.servers[26].sink.on_newcc 1
param **.servers[1].sink.on_newcc 1
param **.servers[26].gen.on_newcc 1
param **.servers[26]**.on_utilization 1
param **.servers[115]**.dstLid 27
param **.servers[115].app.msgLength 4194304B
param **.servers[115].app.msgNum 5
param **.servers[115].app.msg2msgGap 1ns
param **.servers[115].**.on_average_throughput 1
param **.servers[115]**.startTime 0.005000
param **.servers[115]**.endTime 0.025000
param **.servers[115].gen.on_newcc 1
param **.servers[26].sink.on_newcc 1
param **.servers[115].sink.on_newcc 1
param **.servers[26].gen.on_newcc 1
param **.servers[26]**.on_utilization 1
param **.servers[114]**.dstLid 40
param **.servers[114].app.msgLength 4194304B
param **.servers[114].app.msgNum 5
param **.servers[114].app.msg2msgGap 1ns
param **.servers[114].**.on_average_throughput 1
param **.servers[114]**.startTime 0.005000
param **.servers[114]**.endTime 0.025000
param **.servers[114].gen.on_newcc 1
param **.servers[39].sink.on_newcc 1
param **.servers[114].sink.on_newcc 1
param **.servers[39].gen.on_newcc 1
param **.servers[39]**.on_utilization 1
param **.servers[75]**.dstLid 71
param **.servers[75].app.msgLength 4194304B
param **.servers[75].app.msgNum 5
param **.servers[75].app.msg2msgGap 1ns
param **.servers[75].**.on_average_throughput 1
param **.servers[75]**.startTime 0.005000
param **.servers[75]**.endTime 0.025000
param **.servers[75].gen.on_newcc 1
param **.servers[70].sink.on_newcc 1
param **.servers[75].sink.on_newcc 1
param **.servers[70].gen.on_newcc 1
param **.servers[70]**.on_utilization 1
param **.servers[3]**.dstLid 16
param **.servers[3].app.msgLength 4194304B
param **.servers[3].app.msgNum 5
param **.servers[3].app.msg2msgGap 1ns
param **.servers[3].**.on_average_throughput 1
param **.servers[3]**.startTime 0.005000
param **.servers[3]**.endTime 0.025000
param **.servers[3].gen.on_newcc 1
param **.servers[15].sink.on_newcc 1
param **.servers[3].sink.on_newcc 1
param **.servers[15].gen.on_newcc 1
param **.servers[15]**.on_utilization 1
param **.servers[85]**.dstLid 117
param **.servers[85].app.msgLength 4194304B
param **.servers[85].app.msgNum 5
param **.servers[85].app.msg2msgGap 1ns
param **.servers[85].**.on_average_throughput 1
param **.servers[85]**.startTime 0.005000
param **.servers[85]**.endTime 0.025000
param **.servers[85].gen.on_newcc 1
param **.servers[116].sink.on_newcc 1
param **.servers[85].sink.on_newcc 1
param **.servers[116].gen.on_newcc 1
param **.servers[116]**.on_utilization 1
param **.servers[25]**.dstLid 90
param **.servers[25].app.msgLength 4194304B
param **.servers[25].app.msgNum 5
param **.servers[25].app.msg2msgGap 1ns
param **.servers[25].**.on_average_throughput 1
param **.servers[25]**.startTime 0.005000
param **.servers[25]**.endTime 0.025000
param **.servers[25].gen.on_newcc 1
param **.servers[89].sink.on_newcc 1
param **.servers[25].sink.on_newcc 1
param **.servers[89].gen.on_newcc 1
param **.servers[89]**.on_utilization 1
param **.servers[42]**.dstLid 105
param **.servers[42].app.msgLength 4194304B
param **.servers[42].app.msgNum 5
param **.servers[42].app.msg2msgGap 1ns
param **.servers[42].**.on_average_throughput 1
param **.servers[42]**.startTime 0.005000
param **.servers[42]**.endTime 0.025000
param **.servers[42].gen.on_newcc 1
param **.servers[104].sink.on_newcc 1
param **.servers[42].sink.on_newcc 1
param **.servers[104].gen.on_newcc 1
param **.servers[104]**.on_utilization 1
param **.servers[31]**.dstLid 40
param **.servers[31].app.msgLength 4194304B
param **.servers[31].app.msgNum 5
param **.servers[31].app.msg2msgGap 1ns
param **.servers[31].**.on_average_throughput 1
param **.servers[31]**.startTime 0.005000
param **.servers[31]**.endTime 0.025000
param **.servers[31].gen.on_newcc 1
param **.servers[39].sink.on_newcc 1
param **.servers[31].sink.on_newcc 1
param **.servers[39].gen.on_newcc 1
param **.servers[39]**.on_utilization 1
param **.servers[53]**.dstLid 117
param **.servers[53].app.msgLength 4194304B
param **.servers[53].app.msgNum 5
param **.servers[53].app.msg2msgGap 1ns
param **.servers[53].**.on_average_throughput 1
param **.servers[53]**.startTime 0.005000
param **.servers[53]**.endTime 0.025000
param **.servers[53].gen.on_newcc 1
param **.servers[116].sink.on_newcc 1
param **.servers[53].sink.on_newcc 1
param **.servers[116].gen.on_newcc 1
param **.servers[116]**.on_utilization 1
param **.servers[33]**.dstLid 63
param **.servers[33].app.msgLength 4194304B
param **.servers[33].app.msgNum 5
param **.servers[33].app.msg2msgGap 1ns
param **.servers[33].**.on_average_throughput 1
param **.servers[33]**.startTime 0.005000
param **.servers[33]**.endTime 0.025000
param **.servers[33].gen.on_newcc 1
param **.servers[62].sink.on_newcc 1
param **.servers[33].sink.on_newcc 1
param **.servers[62].gen.on_newcc 1
param **.servers[62]**.on_utilization 1
param **.servers[67]**.dstLid 16
param **.servers[67].app.msgLength 4194304B
param **.servers[67].app.msgNum 5
param **.servers[67].app.msg2msgGap 1ns
param **.servers[67].**.on_average_throughput 1
param **.servers[67]**.startTime 0.005000
param **.servers[67]**.endTime 0.025000
param **.servers[67].gen.on_newcc 1
param **.servers[15].sink.on_newcc 1
param **.servers[67].sink.on_newcc 1
param **.servers[15].gen.on_newcc 1
param **.servers[15]**.on_utilization 1
param **.servers[11]**.dstLid 71
param **.servers[11].app.msgLength 4194304B
param **.servers[11].app.msgNum 5
param **.servers[11].app.msg2msgGap 1ns
param **.servers[11].**.on_average_throughput 1
param **.servers[11]**.startTime 0.005000
param **.servers[11]**.endTime 0.025000
param **.servers[11].gen.on_newcc 1
param **.servers[70].sink.on_newcc 1
param **.servers[11].sink.on_newcc 1
param **.servers[70].gen.on_newcc 1
param **.servers[70]**.on_utilization 1
param **.servers[69]**.dstLid 40
param **.servers[69].app.msgLength 4194304B
param **.servers[69].app.msgNum 5
param **.servers[69].app.msg2msgGap 1ns
param **.servers[69].**.on_average_throughput 1
param **.servers[69]**.startTime 0.005000
param **.servers[69]**.endTime 0.025000
param **.servers[69].gen.on_newcc 1
param **.servers[39].sink.on_newcc 1
param **.servers[69].sink.on_newcc 1
param **.servers[39].gen.on_newcc 1
param **.servers[39]**.on_utilization 1
param **.servers[105]**.dstLid 117
param **.servers[105].app.msgLength 4194304B
param **.servers[105].app.msgNum 5
param **.servers[105].app.msg2msgGap 1ns
param **.servers[105].**.on_average_throughput 1
param **.servers[105]**.startTime 0.005000
param **.servers[105]**.endTime 0.025000
param **.servers[105].gen.on_newcc 1
param **.servers[116].sink.on_newcc 1
param **.servers[105].sink.on_newcc 1
param **.servers[116].gen.on_newcc 1
param **.servers[116]**.on_utilization 1
param **.servers[40]**.dstLid 40
param **.servers[40].app.msgLength 4194304B
param **.servers[40].app.msgNum 5
param **.servers[40].app.msg2msgGap 1ns
param **.servers[40].**.on_average_throughput 1
param **.servers[40]**.startTime 0.005000
param **.servers[40]**.endTime 0.025000
param **.servers[40].gen.on_newcc 1
param **.servers[39].sink.on_newcc 1
param **.servers[40].sink.on_newcc 1
param **.servers[39].gen.on_newcc 1
param **.servers[39]**.on_utilization 1
param **.servers[10]**.dstLid 105
param **.servers[10].app.msgLength 4194304B
param **.servers[10].app.msgNum 5
param **.servers[10].app.msg2msgGap 1ns
param **.servers[10].**.on_average_throughput 1
param **.servers[10]**.startTime 0.005000
param **.servers[10]**.endTime 0.025000
param **.servers[10].gen.on_newcc 1
param **.servers[104].sink.on_newcc 1
param **.servers[10].sink.on_newcc 1
param **.servers[104].gen.on_newcc 1
param **.servers[104]**.on_utilization 1
param **.servers[120]**.dstLid 27
param **.servers[120].app.msgLength 4194304B
param **.servers[120].app.msgNum 5
param **.servers[120].app.msg2msgGap 1ns
param **.servers[120].**.on_average_throughput 1
param **.servers[120]**.startTime 0.005000
param **.servers[120]**.endTime 0.025000
param **.servers[120].gen.on_newcc 1
param **.servers[26].sink.on_newcc 1
param **.servers[120].sink.on_newcc 1
param **.servers[26].gen.on_newcc 1
param **.servers[26]**.on_utilization 1
param **.servers[16]**.dstLid 40
param **.servers[16].app.msgLength 4194304B
param **.servers[16].app.msgNum 5
param **.servers[16].app.msg2msgGap 1ns
param **.servers[16].**.on_average_throughput 1
param **.servers[16]**.startTime 0.005000
param **.servers[16]**.endTime 0.025000
param **.servers[16].gen.on_newcc 1
param **.servers[39].sink.on_newcc 1
param **.servers[16].sink.on_newcc 1
param **.servers[39].gen.on_newcc 1
param **.servers[39]**.on_utilization 1
param **.servers[123]**.dstLid 27
param **.servers[123].app.msgLength 4194304B
param **.servers[123].app.msgNum 5
param **.servers[123].app.msg2msgGap 1ns
param **.servers[123].**.on_average_throughput 1
param **.servers[123]**.startTime 0.005000
param **.servers[123]**.endTime 0.025000
param **.servers[123].gen.on_newcc 1
param **.servers[26].sink.on_newcc 1
param **.servers[123].sink.on_newcc 1
param **.servers[26].gen.on_newcc 1
param **.servers[26]**.on_utilization 1
param **.servers[56]**.dstLid 27
param **.servers[56].app.msgLength 4194304B
param **.servers[56].app.msgNum 5
param **.servers[56].app.msg2msgGap 1ns
param **.servers[56].**.on_average_throughput 1
param **.servers[56]**.startTime 0.005000
param **.servers[56]**.endTime 0.025000
param **.servers[56].gen.on_newcc 1
param **.servers[26].sink.on_newcc 1
param **.servers[56].sink.on_newcc 1
param **.servers[26].gen.on_newcc 1
param **.servers[26]**.on_utilization 1
param **.servers[0]**.dstLid 49
param **.servers[0].app.msgLength 4096B
param **.servers[0].app.msg2msgGap 50000ns
param **.servers[0].app.msgNum 200
param **.servers[0]**.startTime 0.015000
param **.servers[0]**.endTime 0.016000
param **.servers[2]**.dstLid 95
param **.servers[2].app.msgLength 4096B
param **.servers[2].app.msg2msgGap 50000ns
param **.servers[2].app.msgNum 200
param **.servers[2]**.startTime 0.007000
param **.servers[2]**.endTime 0.008000
param **.servers[4]**.dstLid 118
param **.servers[4].app.msgLength 4096B
param **.servers[4].app.msg2msgGap 50000ns
param **.servers[4].app.msgNum 200
param **.servers[4]**.startTime 0.017000
param **.servers[4]**.endTime 0.018000
param **.servers[5]**.dstLid 6
param **.servers[5].app.msgLength 4096B
param **.servers[5].app.msg2msgGap 50000ns
param **.servers[5].app.msgNum 200
param **.servers[5]**.startTime 0.011000
param **.servers[5]**.endTime 0.012000
param **.servers[6]**.dstLid 56
param **.servers[6].app.msgLength 4096B
param **.servers[6].app.msg2msgGap 50000ns
param **.servers[6].app.msgNum 200
param **.servers[6]**.startTime 0.007000
param **.servers[6]**.endTime 0.008000
param **.servers[7]**.dstLid 48
param **.servers[7].app.msgLength 4096B
param **.servers[7].app.msg2msgGap 50000ns
param **.servers[7].app.msgNum 200
param **.servers[7]**.startTime 0.013000
param **.servers[7]**.endTime 0.014000
param **.servers[8]**.dstLid 112
param **.servers[8].app.msgLength 4096B
param **.servers[8].app.msg2msgGap 50000ns
param **.servers[8].app.msgNum 200
param **.servers[8]**.startTime 0.017000
param **.servers[8]**.endTime 0.018000
param **.servers[9]**.dstLid 84
param **.servers[9].app.msgLength 4096B
param **.servers[9].app.msg2msgGap 50000ns
param **.servers[9].app.msgNum 200
param **.servers[9]**.startTime 0.015000
param **.servers[9]**.endTime 0.016000
param **.servers[12]**.dstLid 60
param **.servers[12].app.msgLength 4096B
param **.servers[12].app.msg2msgGap 50000ns
param **.servers[12].app.msgNum 200
param **.servers[12]**.startTime 0.009000
param **.servers[12]**.endTime 0.010000
param **.servers[13]**.dstLid 79
param **.servers[13].app.msgLength 4096B
param **.servers[13].app.msg2msgGap 50000ns
param **.servers[13].app.msgNum 200
param **.servers[13]**.startTime 0.017000
param **.servers[13]**.endTime 0.018000
param **.servers[14]**.dstLid 93
param **.servers[14].app.msgLength 4096B
param **.servers[14].app.msg2msgGap 50000ns
param **.servers[14].app.msgNum 200
param **.servers[14]**.startTime 0.019000
param **.servers[14]**.endTime 0.020000
param **.servers[17]**.dstLid 38
param **.servers[17].app.msgLength 4096B
param **.servers[17].app.msg2msgGap 50000ns
param **.servers[17].app.msgNum 200
param **.servers[17]**.startTime 0.017000
param **.servers[17]**.endTime 0.018000
param **.servers[18]**.dstLid 112
param **.servers[18].app.msgLength 4096B
param **.servers[18].app.msg2msgGap 50000ns
param **.servers[18].app.msgNum 200
param **.servers[18]**.startTime 0.007000
param **.servers[18]**.endTime 0.008000
param **.servers[19]**.dstLid 110
param **.servers[19].app.msgLength 4096B
param **.servers[19].app.msg2msgGap 50000ns
param **.servers[19].app.msgNum 200
param **.servers[19]**.startTime 0.009000
param **.servers[19]**.endTime 0.010000
param **.servers[20]**.dstLid 20
param **.servers[20].app.msgLength 4096B
param **.servers[20].app.msg2msgGap 50000ns
param **.servers[20].app.msgNum 200
param **.servers[20]**.startTime 0.007000
param **.servers[20]**.endTime 0.008000
param **.servers[21]**.dstLid 102
param **.servers[21].app.msgLength 4096B
param **.servers[21].app.msg2msgGap 50000ns
param **.servers[21].app.msgNum 200
param **.servers[21]**.startTime 0.011000
param **.servers[21]**.endTime 0.012000
param **.servers[22]**.dstLid 85
param **.servers[22].app.msgLength 4096B
param **.servers[22].app.msg2msgGap 50000ns
param **.servers[22].app.msgNum 200
param **.servers[22]**.startTime 0.009000
param **.servers[22]**.endTime 0.010000
param **.servers[23]**.dstLid 118
param **.servers[23].app.msgLength 4096B
param **.servers[23].app.msg2msgGap 50000ns
param **.servers[23].app.msgNum 200
param **.servers[23]**.startTime 0.017000
param **.servers[23]**.endTime 0.018000
param **.servers[24]**.dstLid 97
param **.servers[24].app.msgLength 4096B
param **.servers[24].app.msg2msgGap 50000ns
param **.servers[24].app.msgNum 200
param **.servers[24]**.startTime 0.009000
param **.servers[24]**.endTime 0.010000
param **.servers[27]**.dstLid 9
param **.servers[27].app.msgLength 4096B
param **.servers[27].app.msg2msgGap 50000ns
param **.servers[27].app.msgNum 200
param **.servers[27]**.startTime 0.019000
param **.servers[27]**.endTime 0.020000
param **.servers[28]**.dstLid 14
param **.servers[28].app.msgLength 4096B
param **.servers[28].app.msg2msgGap 50000ns
param **.servers[28].app.msgNum 200
param **.servers[28]**.startTime 0.015000
param **.servers[28]**.endTime 0.016000
param **.servers[29]**.dstLid 128
param **.servers[29].app.msgLength 4096B
param **.servers[29].app.msg2msgGap 50000ns
param **.servers[29].app.msgNum 200
param **.servers[29]**.startTime 0.011000
param **.servers[29]**.endTime 0.012000
param **.servers[30]**.dstLid 87
param **.servers[30].app.msgLength 4096B
param **.servers[30].app.msg2msgGap 50000ns
param **.servers[30].app.msgNum 200
param **.servers[30]**.startTime 0.009000
param **.servers[30]**.endTime 0.010000
param **.servers[32]**.dstLid 69
param **.servers[32].app.msgLength 4096B
param **.servers[32].app.msg2msgGap 50000ns
param **.servers[32].app.msgNum 200
param **.servers[32]**.startTime 0.021000
param **.servers[32]**.endTime 0.022000
param **.servers[34]**.dstLid 69
param **.servers[34].app.msgLength 4096B
param **.servers[34].app.msg2msgGap 50000ns
param **.servers[34].app.msgNum 200
param **.servers[34]**.startTime 0.017000
param **.servers[34]**.endTime 0.018000
param **.servers[35]**.dstLid 99
param **.servers[35].app.msgLength 4096B
param **.servers[35].app.msg2msgGap 50000ns
param **.servers[35].app.msgNum 200
param **.servers[35]**.startTime 0.013000
param **.servers[35]**.endTime 0.014000
param **.servers[36]**.dstLid 51
param **.servers[36].app.msgLength 4096B
param **.servers[36].app.msg2msgGap 50000ns
param **.servers[36].app.msgNum 200
param **.servers[36]**.startTime 0.011000
param **.servers[36]**.endTime 0.012000
param **.servers[37]**.dstLid 73
param **.servers[37].app.msgLength 4096B
param **.servers[37].app.msg2msgGap 50000ns
param **.servers[37].app.msgNum 200
param **.servers[37]**.startTime 0.013000
param **.servers[37]**.endTime 0.014000
param **.servers[38]**.dstLid 74
param **.servers[38].app.msgLength 4096B
param **.servers[38].app.msg2msgGap 50000ns
param **.servers[38].app.msgNum 200
param **.servers[38]**.startTime 0.015000
param **.servers[38]**.endTime 0.016000
param **.servers[41]**.dstLid 45
param **.servers[41].app.msgLength 4096B
param **.servers[41].app.msg2msgGap 50000ns
param **.servers[41].app.msgNum 200
param **.servers[41]**.startTime 0.013000
param **.servers[41]**.endTime 0.014000
param **.servers[43]**.dstLid 8
param **.servers[43].app.msgLength 4096B
param **.servers[43].app.msg2msgGap 50000ns
param **.servers[43].app.msgNum 200
param **.servers[43]**.startTime 0.011000
param **.servers[43]**.endTime 0.012000
param **.servers[44]**.dstLid 9
param **.servers[44].app.msgLength 4096B
param **.servers[44].app.msg2msgGap 50000ns
param **.servers[44].app.msgNum 200
param **.servers[44]**.startTime 0.009000
param **.servers[44]**.endTime 0.010000
param **.servers[45]**.dstLid 58
param **.servers[45].app.msgLength 4096B
param **.servers[45].app.msg2msgGap 50000ns
param **.servers[45].app.msgNum 200
param **.servers[45]**.startTime 0.015000
param **.servers[45]**.endTime 0.016000
param **.servers[46]**.dstLid 82
param **.servers[46].app.msgLength 4096B
param **.servers[46].app.msg2msgGap 50000ns
param **.servers[46].app.msgNum 200
param **.servers[46]**.startTime 0.011000
param **.servers[46]**.endTime 0.012000
param **.servers[47]**.dstLid 89
param **.servers[47].app.msgLength 4096B
param **.servers[47].app.msg2msgGap 50000ns
param **.servers[47].app.msgNum 200
param **.servers[47]**.startTime 0.011000
param **.servers[47]**.endTime 0.012000
param **.servers[48]**.dstLid 65
param **.servers[48].app.msgLength 4096B
param **.servers[48].app.msg2msgGap 50000ns
param **.servers[48].app.msgNum 200
param **.servers[48]**.startTime 0.007000
param **.servers[48]**.endTime 0.008000
param **.servers[49]**.dstLid 81
param **.servers[49].app.msgLength 4096B
param **.servers[49].app.msg2msgGap 50000ns
param **.servers[49].app.msgNum 200
param **.servers[49]**.startTime 0.015000
param **.servers[49]**.endTime 0.016000
param **.servers[50]**.dstLid 30
param **.servers[50].app.msgLength 4096B
param **.servers[50].app.msg2msgGap 50000ns
param **.servers[50].app.msgNum 200
param **.servers[50]**.startTime 0.019000
param **.servers[50]**.endTime 0.020000
param **.servers[51]**.dstLid 6
param **.servers[51].app.msgLength 4096B
param **.servers[51].app.msg2msgGap 50000ns
param **.servers[51].app.msgNum 200
param **.servers[51]**.startTime 0.017000
param **.servers[51]**.endTime 0.018000
param **.servers[52]**.dstLid 55
param **.servers[52].app.msgLength 4096B
param **.servers[52].app.msg2msgGap 50000ns
param **.servers[52].app.msgNum 200
param **.servers[52]**.startTime 0.007000
param **.servers[52]**.endTime 0.008000
param **.servers[54]**.dstLid 119
param **.servers[54].app.msgLength 4096B
param **.servers[54].app.msg2msgGap 50000ns
param **.servers[54].app.msgNum 200
param **.servers[54]**.startTime 0.019000
param **.servers[54]**.endTime 0.020000
param **.servers[55]**.dstLid 128
param **.servers[55].app.msgLength 4096B
param **.servers[55].app.msg2msgGap 50000ns
param **.servers[55].app.msgNum 200
param **.servers[55]**.startTime 0.017000
param **.servers[55]**.endTime 0.018000
param **.servers[57]**.dstLid 39
param **.servers[57].app.msgLength 4096B
param **.servers[57].app.msg2msgGap 50000ns
param **.servers[57].app.msgNum 200
param **.servers[57]**.startTime 0.009000
param **.servers[57]**.endTime 0.010000
param **.servers[58]**.dstLid 36
param **.servers[58].app.msgLength 4096B
param **.servers[58].app.msg2msgGap 50000ns
param **.servers[58].app.msgNum 200
param **.servers[58]**.startTime 0.015000
param **.servers[58]**.endTime 0.016000
param **.servers[59]**.dstLid 65
param **.servers[59].app.msgLength 4096B
param **.servers[59].app.msg2msgGap 50000ns
param **.servers[59].app.msgNum 200
param **.servers[59]**.startTime 0.019000
param **.servers[59]**.endTime 0.020000
param **.servers[60]**.dstLid 112
param **.servers[60].app.msgLength 4096B
param **.servers[60].app.msg2msgGap 50000ns
param **.servers[60].app.msgNum 200
param **.servers[60]**.startTime 0.015000
param **.servers[60]**.endTime 0.016000
param **.servers[63]**.dstLid 94
param **.servers[63].app.msgLength 4096B
param **.servers[63].app.msg2msgGap 50000ns
param **.servers[63].app.msgNum 200
param **.servers[63]**.startTime 0.021000
param **.servers[63]**.endTime 0.022000
param **.servers[64]**.dstLid 77
param **.servers[64].app.msgLength 4096B
param **.servers[64].app.msg2msgGap 50000ns
param **.servers[64].app.msgNum 200
param **.servers[64]**.startTime 0.011000
param **.servers[64]**.endTime 0.012000
param **.servers[65]**.dstLid 22
param **.servers[65].app.msgLength 4096B
param **.servers[65].app.msg2msgGap 50000ns
param **.servers[65].app.msgNum 200
param **.servers[65]**.startTime 0.009000
param **.servers[65]**.endTime 0.010000
param **.servers[66]**.dstLid 5
param **.servers[66].app.msgLength 4096B
param **.servers[66].app.msg2msgGap 50000ns
param **.servers[66].app.msgNum 200
param **.servers[66]**.startTime 0.015000
param **.servers[66]**.endTime 0.016000
param **.servers[68]**.dstLid 104
param **.servers[68].app.msgLength 4096B
param **.servers[68].app.msg2msgGap 50000ns
param **.servers[68].app.msgNum 200
param **.servers[68]**.startTime 0.011000
param **.servers[68]**.endTime 0.012000
param **.servers[71]**.dstLid 73
param **.servers[71].app.msgLength 4096B
param **.servers[71].app.msg2msgGap 50000ns
param **.servers[71].app.msgNum 200
param **.servers[71]**.startTime 0.011000
param **.servers[71]**.endTime 0.012000
param **.servers[72]**.dstLid 96
param **.servers[72].app.msgLength 4096B
param **.servers[72].app.msg2msgGap 50000ns
param **.servers[72].app.msgNum 200
param **.servers[72]**.startTime 0.011000
param **.servers[72]**.endTime 0.012000
param **.servers[73]**.dstLid 78
param **.servers[73].app.msgLength 4096B
param **.servers[73].app.msg2msgGap 50000ns
param **.servers[73].app.msgNum 200
param **.servers[73]**.startTime 0.011000
param **.servers[73]**.endTime 0.012000
param **.servers[74]**.dstLid 101
param **.servers[74].app.msgLength 4096B
param **.servers[74].app.msg2msgGap 50000ns
param **.servers[74].app.msgNum 200
param **.servers[74]**.startTime 0.013000
param **.servers[74]**.endTime 0.014000
param **.servers[76]**.dstLid 114
param **.servers[76].app.msgLength 4096B
param **.servers[76].app.msg2msgGap 50000ns
param **.servers[76].app.msgNum 200
param **.servers[76]**.startTime 0.013000
param **.servers[76]**.endTime 0.014000
param **.servers[77]**.dstLid 78
param **.servers[77].app.msgLength 4096B
param **.servers[77].app.msg2msgGap 50000ns
param **.servers[77].app.msgNum 200
param **.servers[77]**.startTime 0.017000
param **.servers[77]**.endTime 0.018000
param **.servers[78]**.dstLid 81
param **.servers[78].app.msgLength 4096B
param **.servers[78].app.msg2msgGap 50000ns
param **.servers[78].app.msgNum 200
param **.servers[78]**.startTime 0.019000
param **.servers[78]**.endTime 0.020000
param **.servers[79]**.dstLid 83
param **.servers[79].app.msgLength 4096B
param **.servers[79].app.msg2msgGap 50000ns
param **.servers[79].app.msgNum 200
param **.servers[79]**.startTime 0.015000
param **.servers[79]**.endTime 0.016000
param **.servers[80]**.dstLid 120
param **.servers[80].app.msgLength 4096B
param **.servers[80].app.msg2msgGap 50000ns
param **.servers[80].app.msgNum 200
param **.servers[80]**.startTime 0.021000
param **.servers[80]**.endTime 0.022000
param **.servers[81]**.dstLid 56
param **.servers[81].app.msgLength 4096B
param **.servers[81].app.msg2msgGap 50000ns
param **.servers[81].app.msgNum 200
param **.servers[81]**.startTime 0.009000
param **.servers[81]**.endTime 0.010000
param **.servers[82]**.dstLid 119
param **.servers[82].app.msgLength 4096B
param **.servers[82].app.msg2msgGap 50000ns
param **.servers[82].app.msgNum 200
param **.servers[82]**.startTime 0.007000
param **.servers[82]**.endTime 0.008000
param **.servers[83]**.dstLid 25
param **.servers[83].app.msgLength 4096B
param **.servers[83].app.msg2msgGap 50000ns
param **.servers[83].app.msgNum 200
param **.servers[83]**.startTime 0.017000
param **.servers[83]**.endTime 0.018000
param **.servers[84]**.dstLid 9
param **.servers[84].app.msgLength 4096B
param **.servers[84].app.msg2msgGap 50000ns
param **.servers[84].app.msgNum 200
param **.servers[84]**.startTime 0.009000
param **.servers[84]**.endTime 0.010000
param **.servers[86]**.dstLid 110
param **.servers[86].app.msgLength 4096B
param **.servers[86].app.msg2msgGap 50000ns
param **.servers[86].app.msgNum 200
param **.servers[86]**.startTime 0.017000
param **.servers[86]**.endTime 0.018000
param **.servers[87]**.dstLid 89
param **.servers[87].app.msgLength 4096B
param **.servers[87].app.msg2msgGap 50000ns
param **.servers[87].app.msgNum 200
param **.servers[87]**.startTime 0.011000
param **.servers[87]**.endTime 0.012000
param **.servers[88]**.dstLid 10
param **.servers[88].app.msgLength 4096B
param **.servers[88].app.msg2msgGap 50000ns
param **.servers[88].app.msgNum 200
param **.servers[88]**.startTime 0.021000
param **.servers[88]**.endTime 0.022000
param **.servers[90]**.dstLid 30
param **.servers[90].app.msgLength 4096B
param **.servers[90].app.msg2msgGap 50000ns
param **.servers[90].app.msgNum 200
param **.servers[90]**.startTime 0.007000
param **.servers[90]**.endTime 0.008000
param **.servers[92]**.dstLid 44
param **.servers[92].app.msgLength 4096B
param **.servers[92].app.msg2msgGap 50000ns
param **.servers[92].app.msgNum 200
param **.servers[92]**.startTime 0.013000
param **.servers[92]**.endTime 0.014000
param **.servers[93]**.dstLid 126
param **.servers[93].app.msgLength 4096B
param **.servers[93].app.msg2msgGap 50000ns
param **.servers[93].app.msgNum 200
param **.servers[93]**.startTime 0.021000
param **.servers[93]**.endTime 0.022000
param **.servers[94]**.dstLid 91
param **.servers[94].app.msgLength 4096B
param **.servers[94].app.msg2msgGap 50000ns
param **.servers[94].app.msgNum 200
param **.servers[94]**.startTime 0.013000
param **.servers[94]**.endTime 0.014000
param **.servers[95]**.dstLid 10
param **.servers[95].app.msgLength 4096B
param **.servers[95].app.msg2msgGap 50000ns
param **.servers[95].app.msgNum 200
param **.servers[95]**.startTime 0.019000
param **.servers[95]**.endTime 0.020000
param **.servers[96]**.dstLid 29
param **.servers[96].app.msgLength 4096B
param **.servers[96].app.msg2msgGap 50000ns
param **.servers[96].app.msgNum 200
param **.servers[96]**.startTime 0.017000
param **.servers[96]**.endTime 0.018000
param **.servers[98]**.dstLid 127
param **.servers[98].app.msgLength 4096B
param **.servers[98].app.msg2msgGap 50000ns
param **.servers[98].app.msgNum 200
param **.servers[98]**.startTime 0.007000
param **.servers[98]**.endTime 0.008000
param **.servers[99]**.dstLid 53
param **.servers[99].app.msgLength 4096B
param **.servers[99].app.msg2msgGap 50000ns
param **.servers[99].app.msgNum 200
param **.servers[99]**.startTime 0.019000
param **.servers[99]**.endTime 0.020000
param **.servers[100]**.dstLid 47
param **.servers[100].app.msgLength 4096B
param **.servers[100].app.msg2msgGap 50000ns
param **.servers[100].app.msgNum 200
param **.servers[100]**.startTime 0.013000
param **.servers[100]**.endTime 0.014000
param **.servers[101]**.dstLid 6
param **.servers[101].app.msgLength 4096B
param **.servers[101].app.msg2msgGap 50000ns
param **.servers[101].app.msgNum 200
param **.servers[101]**.startTime 0.015000
param **.servers[101]**.endTime 0.016000
param **.servers[102]**.dstLid 50
param **.servers[102].app.msgLength 4096B
param **.servers[102].app.msg2msgGap 50000ns
param **.servers[102].app.msgNum 200
param **.servers[102]**.startTime 0.009000
param **.servers[102]**.endTime 0.010000
param **.servers[103]**.dstLid 13
param **.servers[103].app.msgLength 4096B
param **.servers[103].app.msg2msgGap 50000ns
param **.servers[103].app.msgNum 200
param **.servers[103]**.startTime 0.017000
param **.servers[103]**.endTime 0.018000
param **.servers[106]**.dstLid 122
param **.servers[106].app.msgLength 4096B
param **.servers[106].app.msg2msgGap 50000ns
param **.servers[106].app.msgNum 200
param **.servers[106]**.startTime 0.019000
param **.servers[106]**.endTime 0.020000
param **.servers[107]**.dstLid 101
param **.servers[107].app.msgLength 4096B
param **.servers[107].app.msg2msgGap 50000ns
param **.servers[107].app.msgNum 200
param **.servers[107]**.startTime 0.021000
param **.servers[107]**.endTime 0.022000
param **.servers[108]**.dstLid 21
param **.servers[108].app.msgLength 4096B
param **.servers[108].app.msg2msgGap 50000ns
param **.servers[108].app.msgNum 200
param **.servers[108]**.startTime 0.021000
param **.servers[108]**.endTime 0.022000
param **.servers[109]**.dstLid 6
param **.servers[109].app.msgLength 4096B
param **.servers[109].app.msg2msgGap 50000ns
param **.servers[109].app.msgNum 200
param **.servers[109]**.startTime 0.009000
param **.servers[109]**.endTime 0.010000
param **.servers[110]**.dstLid 5
param **.servers[110].app.msgLength 4096B
param **.servers[110].app.msg2msgGap 50000ns
param **.servers[110].app.msgNum 200
param **.servers[110]**.startTime 0.017000
param **.servers[110]**.endTime 0.018000
param **.servers[111]**.dstLid 44
param **.servers[111].app.msgLength 4096B
param **.servers[111].app.msg2msgGap 50000ns
param **.servers[111].app.msgNum 200
param **.servers[111]**.startTime 0.011000
param **.servers[111]**.endTime 0.012000
param **.servers[112]**.dstLid 35
param **.servers[112].app.msgLength 4096B
param **.servers[112].app.msg2msgGap 50000ns
param **.servers[112].app.msgNum 200
param **.servers[112]**.startTime 0.021000
param **.servers[112]**.endTime 0.022000
param **.servers[113]**.dstLid 31
param **.servers[113].app.msgLength 4096B
param **.servers[113].app.msg2msgGap 50000ns
param **.servers[113].app.msgNum 200
param **.servers[113]**.startTime 0.021000
param **.servers[113]**.endTime 0.022000
param **.servers[117]**.dstLid 66
param **.servers[117].app.msgLength 4096B
param **.servers[117].app.msg2msgGap 50000ns
param **.servers[117].app.msgNum 200
param **.servers[117]**.startTime 0.007000
param **.servers[117]**.endTime 0.008000
param **.servers[118]**.dstLid 5
param **.servers[118].app.msgLength 4096B
param **.servers[118].app.msg2msgGap 50000ns
param **.servers[118].app.msgNum 200
param **.servers[118]**.startTime 0.013000
param **.servers[118]**.endTime 0.014000
param **.servers[119]**.dstLid 30
param **.servers[119].app.msgLength 4096B
param **.servers[119].app.msg2msgGap 50000ns
param **.servers[119].app.msgNum 200
param **.servers[119]**.startTime 0.011000
param **.servers[119]**.endTime 0.012000
param **.servers[121]**.dstLid 77
param **.servers[121].app.msgLength 4096B
param **.servers[121].app.msg2msgGap 50000ns
param **.servers[121].app.msgNum 200
param **.servers[121]**.startTime 0.017000
param **.servers[121]**.endTime 0.018000
param **.servers[122]**.dstLid 37
param **.servers[122].app.msgLength 4096B
param **.servers[122].app.msg2msgGap 50000ns
param **.servers[122].app.msgNum 200
param **.servers[122]**.startTime 0.021000
param **.servers[122]**.endTime 0.022000
param **.servers[124]**.dstLid 45
param **.servers[124].app.msgLength 4096B
param **.servers[124].app.msg2msgGap 50000ns
param **.servers[124].app.msgNum 200
param **.servers[124]**.startTime 0.007000
param **.servers[124]**.endTime 0.008000
param **.servers[125]**.dstLid 83
param **.servers[125].app.msgLength 4096B
param **.servers[125].app.msg2msgGap 50000ns
param **.servers[125].app.msgNum 200
param **.servers[125]**.startTime 0.009000
param **.servers[125]**.endTime 0.010000
param **.servers[126]**.dstLid 102
param **.servers[126].app.msgLength 4096B
param **.servers[126].app.msg2msgGap 50000ns
param **.servers[126].app.msgNum 200
param **.servers[126]**.startTime 0.009000
param **.servers[126]**.endTime 0.010000
param **.servers[127]**.dstLid 24
param **.servers[127].app.msgLength 4096B
param **.servers[127].app.msg2msgGap 50000ns
param **.servers[127].app.msgNum 200
param **.servers[127]**.startTime 0.019000
param **.servers[127]**.endTime 0.020000
param **.**switches[*]**.fdbsVecFile "\"examples/evaluation_fattree128/fat_tree_128.fdbs\""
param **.startStatCol 100us
param **.dstMode "\"param\""
param **.app.dstSeqVecFile "\"\""
param **.app.dstSeqVecIdx 0
param **.msgLenMode "\"param\""
param **.msgMtuLen 2048B
param **.msgLenSet "\"4096 4096 4096\""
param **.msgLenProb "\"1 1 1 1\""
param **.msgSQ 0
param **.maxContPkts 10
param **.popDlyPerByte 0.25ns
param **.genDlyPerByte 0.25ns
param **.maxQueuedPerVL 10
param **.flit2FlitGap 0.001ns
param **.pkt2PktGap 0.001ns
param **.timeStep_us 49us
param **.CCT_Timer 30us
param **.vlarb.markrate 1
param **ibuf.maxBeingSent 1
param **ibuf.totalBufferSize 1000
param **.servers[*]**.ibuf.maxStatic* 32
param **.**switches[*]**.subport[*].ibuf.maxStatic* 32
param **.**switches[*]**.obuf.size 5
param **.servers[*]**.obuf.size 5
param **.pktFwdType "\"Pktfwd\""
param **.servers[*]**.vlarb.busWidth 16B
param **.servers[*]**.vlarb.coreFreq 1000MHz
param **.**switches[*]**.vlarb.coreFreq 1200MHz
param **.**switches[*]**.vlarb.busWidth 24B

vector 0 fat_tree_128.servers[89].sink "latency of Large message" ETV
vector 1 fat_tree_128.servers[62].sink "latency of Large message" ETV
vector 2 fat_tree_128.servers[70].sink "latency of Large message" ETV
vector 3 fat_tree_128.servers[15].sink "latency of Large message" ETV
vector 4 fat_tree_128.servers[54].sink "Latency of each message" ETV
vector 5 fat_tree_128.servers[19].sink "Latency of each message" ETV
vector 6 fat_tree_128.servers[55].sink "Latency of each message" ETV
vector 7 fat_tree_128.servers[29].sink "Latency of each message" ETV
vector 8 fat_tree_128.servers[44].sink "Latency of each message" ETV
vector 9 fat_tree_128.servers[64].sink "Latency of each message" ETV
vector 10 fat_tree_128.servers[94].sink "Latency of each message" ETV
vector 11 fat_tree_128.servers[111].sink "Latency of each message" ETV
vector 12 fat_tree_128.servers[65].sink "Latency of each message" ETV
vector 13 fat_tree_128.servers[118].sink "Latency of each message" ETV
vector 14 fat_tree_128.servers[126].sink "Latency of each message" ETV
vector 15 fat_tree_128.servers[104].sink "latency of Large message" ETV
vector 16 fat_tree_128.servers[26].sink "latency of Large message" ETV
vector 17 fat_tree_128.servers[116].sink "latency of Large message" ETV
vector 18 fat_tree_128.servers[86].sink "Latency of each message" ETV
vector 19 fat_tree_128.servers[38].sink "Latency of each message" ETV
vector 20 fat_tree_128.servers[21].sink "Latency of each message" ETV
vector 21 fat_tree_128.servers[59].sink "Latency of each message" ETV
vector 22 fat_tree_128.servers[101].sink "Latency of each message" ETV
vector 23 fat_tree_128.servers[84].sink "Latency of each message" ETV
vector 24 fat_tree_128.servers[49].sink "Latency of each message" ETV
vector 25 fat_tree_128.servers[8].sink "Latency of each message" ETV
vector 26 fat_tree_128.servers[5].sink "Latency of each message" ETV
vector 27 fat_tree_128.servers[109].sink "Latency of each message" ETV
vector 28 fat_tree_128.servers[82].sink "Latency of each message" ETV
vector 29 fat_tree_128.servers[96].sink "Latency of each message" ETV
vector 30 fat_tree_128.servers[39].sink "latency of Large message" ETV
vector 31 fat_tree_128.servers[76].sink "Latency of each message" ETV
vector 32 fat_tree_128.servers[72].sink "Latency of each message" ETV
vector 33 fat_tree_128.servers[77].sink "Latency of each message" ETV
vector 34 fat_tree_128.servers[127].sink "Latency of each message" ETV
vector 35 fat_tree_128.servers[81].sink "Latency of each message" ETV
vector 36 fat_tree_128.servers[88].sink "Latency of each message" ETV
vector 37 fat_tree_128.servers[7].sink "Latency of each message" ETV
vector 38 fat_tree_128.servers[50].sink "Latency of each message" ETV
vector 39 fat_tree_128.servers[43].sink "Latency of each message" ETV
vector 40 fat_tree_128.servers[103].sink "Latency of each message" ETV
vector 41 fat_tree_128.servers[95].sink "Latency of each message" ETV
vector 42 fat_tree_128.servers[90].sink "Latency of each message" ETV
vector 43 fat_tree_128.servers[98].sink "Latency of each message" ETV
vector 44 fat_tree_128.servers[113].sink "Latency of each message" ETV
vector 45 fat_tree_128.servers[46].sink "Latency of each message" ETV
vector 46 fat_tree_128.servers[4].sink "Latency of each message" ETV
vector 47 fat_tree_128.servers[100].sink "Latency of each message" ETV
vector 48 fat_tree_128.servers[47].sink "Latency of each message" ETV
vector 49 fat_tree_128.servers[83].sink "Latency of each message" ETV
vector 50 fat_tree_128.servers[80].sink "Latency of each message" ETV
vector 51 fat_tree_128.servers[48].sink "Latency of each message" ETV
vector 52 fat_tree_128.servers[13].sink "Latency of each message" ETV
vector 53 fat_tree_128.servers[73].sink "Latency of each message" ETV
vector 54 fat_tree_128.servers[57].sink "Latency of each message" ETV
vector 55 fat_tree_128.servers[35].sink "Latency of each message" ETV
vector 56 fat_tree_128.servers[78].sink "Latency of each message" ETV
vector 57 fat_tree_128.servers[24].sink "Latency of each message" ETV
vector 58 fat_tree_128.servers[37].sink "Latency of each message" ETV
vector 59 fat_tree_128.servers[117].sink "Latency of each message" ETV
vector 60 fat_tree_128.servers[68].sink "Latency of each message" ETV
vector 61 fat_tree_128.servers[12].sink "Latency of each message" ETV
vector 62 fat_tree_128.servers[28].sink "Latency of each message" ETV
vector 63 fat_tree_128.servers[9].sink "Latency of each message" ETV
vector 64 fat_tree_128.servers[121].sink "Latency of each message" ETV
vector 65 fat_tree_128.servers[23].sink "Latency of each message" ETV
vector 66 fat_tree_128.servers[52].sink "Latency of each message" ETV
vector 67 fat_tree_128.servers[92].sink "Latency of each message" ETV
vector 68 fat_tree_128.servers[93].sink "Latency of each message" ETV
vector 69 fat_tree_128.servers[36].sink "Latency of each message" ETV
vector 70 fat_tree_128.servers[119].sink "Latency of each message" ETV
vector 71 fat_tree_128.servers[20].sink "Latency of each message" ETV
vector 72 fat_tree_128.servers[34].sink "Latency of each message" ETV
vector 73 fat_tree_128.servers[125].sink "Latency of each message" ETV
vector 74 fat_tree_128.servers[30].sink "Latency of each message" ETV
0	4269836	0.006113118987	0.001112605987
0	6642081	0.007225646321	0.001114384181
0	9051886	0.008342318979	0.001120643822
0	11490307	0.009461749347	0.001121420554
0	13963272	0.010581662493	0.001120513218
1	4276935	0.006116297802	0.001115784802
1	6644511	0.00722711567	0.001114790742
1	9049631	0.008340743389	0.001113624279
1	11473965	0.009454451577	0.001116367619
1	13939568	0.010569310801	0.00111851526
2	5681719	0.006777612675	0.001777099675
2	7305578	0.00753297	0.002532457
2	9600658	0.008596807111	0.001823390437
2	12543218	0.009937037523	0.002405271203
2	13948245	0.010573763523	0.001982936419
2	16700044	0.012040847523	0.002103805902
2	17898116	0.012677094147	0.002106663669
2	20668468	0.014125738147	0.002087291148
2	21923967	0.014778858147	0.002102074054
2	23407171	0.015566102924	0.001442185535
3	6082660	0.006966571334	0.001966058334
3	6665346	0.007237551334	0.002237038334
3	10624561	0.009068847334	0.002102163624
3	11204484	0.009330919661	0.002094825418
3	15056194	0.011170225258	0.002102822053
3	15542670	0.011427815343	0.002099958323
3	19019564	0.013267938436	0.002101429512
3	19524286	0.013531234436	0.002104772528
3	23039806	0.015368884439	0.002101301104
3	23430665	0.015578665252	0.002048648456
4	6264154	0.007051124	6.12e-07
4	6371808	0.007101636	6.12e-07
4	6482379	0.00715215	6.14e-07
4	6591090	0.00720266	6.12e-07
4	6699481	0.007253172	6.12e-07
4	6809578	0.007303686	6.14e-07
4	6918724	0.007354196	6.12e-07
4	7026407	0.007404708	6.12e-07
4	7138076	0.007455222	6.14e-07
4	7246473	0.007505732	6.12e-07
4	7353765	0.007556244	6.12e-07
4	7463949	0.007606758	6.14e-07
4	7573800	0.007657268	6.12e-07
4	7681905	0.00770778	6.12e-07
4	7792077	0.007758294	6.14e-07
4	7900307	0.007808804	6.12e-07
4	8009244	0.007859316	6.12e-07
4	8119220	0.00790983	6.14e-07
4	8226818	0.00796034	6.12e-07
4	8337171	0.008010852	6.12e-07
4	8447056	0.008061366	6.14e-07
4	8554968	0.008111876	6.12e-07
4	8663625	0.008162388	6.12e-07
4	8774275	0.008212902	6.14e-07
4	8882571	0.008263412	6.12e-07
4	8990342	0.008313924	6.12e-07
4	9100683	0.008364438	6.14e-07
4	9209151	0.008414948	6.12e-07
4	9317870	0.00846546	6.12e-07
4	9428427	0.008515974	6.14e-07
4	9536426	0.008566484	6.12e-07
4	9645168	0.008616996	6.12e-07
4	9755749	0.00866751	6.14e-07
4	9863936	0.00871802	6.12e-07
4	9972099	0.008768532	6.12e-07
4	10082700	0.008819046	6.14e-07
4	10190459	0.008869556	6.12e-07
4	10299371	0.008920068	6.12e-07
4	10409201	0.008970582	6.14e-07
4	10517956	0.009021092	6.12e-07
4	10629780	0.009071604	6.12e-07
4	10742834	0.009122118	6.14e-07
4	10852338	0.009172628	6.12e-07
4	10963916	0.00922314	6.12e-07
4	11077385	0.009273654	6.14e-07
4	11188237	0.009324164	6.12e-07
4	11298834	0.009374676	6.12e-07
4	11411419	0.00942519	6.14e-07
4	11522007	0.0094757	6.12e-07
4	11634333	0.009526212	6.12e-07
4	11747209	0.009576726	6.14e-07
4	11857217	0.009627236	6.12e-07
4	11968582	0.009677748	6.12e-07
4	12082157	0.009728262	6.14e-07
4	12192246	0.009778772	6.12e-07
4	12304093	0.009829284	6.12e-07
4	12416312	0.009879798	6.14e-07
4	12527096	0.009930308	6.12e-07
4	12639413	0.00998082	6.12e-07
4	12752127	0.010031334	6.14e-07
4	12861984	0.010081844	6.12e-07
4	12974286	0.010132356	6.12e-07
4	13087486	0.01018287	6.14e-07
4	13197152	0.01023338	6.12e-07
4	13308057	0.010283892	6.12e-07
4	13421878	0.010334406	6.14e-07
4	13532400	0.010384916	6.12e-07
4	13642783	0.010435428	6.12e-07
4	13755975	0.010485942	6.14e-07
4	13866489	0.010536452	6.12e-07
4	13972865	0.010586964	6.12e-07
4	14067553	0.010637478	6.14e-07
4	14159940	0.010687988	6.12e-07
4	14253645	0.0107385	6.12e-07
4	14348146	0.010789014	6.14e-07
4	14440383	0.010839524	6.12e-07
4	14532290	0.010890036	6.12e-07
4	14626786	0.01094055	6.14e-07
4	14718195	0.01099106	6.12e-07
4	14810666	0.011041572	6.12e-07
4	14907677	0.011092086	6.14e-07
4	15003838	0.011142596	6.12e-07
4	15098235	0.011193108	6.12e-07
4	15194626	0.011243622	6.14e-07
4	15289600	0.011294132	6.12e-07
4	15384983	0.011344644	6.12e-07
4	15482441	0.011395158	6.14e-07
4	15576342	0.011445668	6.12e-07
4	15671007	0.01149618	6.12e-07
4	15767991	0.011546694	6.14e-07
4	15862740	0.011597204	6.12e-07
4	15957833	0.011647716	6.12e-07
4	16054680	0.01169823	6.14e-07
4	16147780	0.01174874	6.12e-07
4	16243202	0.011799252	6.12e-07
4	16340964	0.011849766	6.14e-07
4	16434686	0.011900276	6.12e-07
4	16529118	0.011950788	6.12e-07
4	16626517	0.012001302	6.14e-07
4	16720510	0.012051812	6.12e-07
4	16814939	0.012102324	6.12e-07
4	16911094	0.012152838	6.14e-07
4	17006527	0.012203348	6.12e-07
4	17101387	0.01225386	6.12e-07
4	17195399	0.012304372	6.12e-07
4	17291993	0.012354884	6.12e-07
4	17387227	0.012405396	6.12e-07
4	17480926	0.012455908	6.12e-07
4	17577547	0.01250642	6.12e-07
4	17672121	0.012556932	6.12e-07
4	17766192	0.012607444	6.12e-07
4	17862548	0.012657956	6.12e-07
4	17957362	0.012708468	6.12e-07
4	18051812	0.01275898	6.12e-07
4	18147488	0.012809492	6.12e-07
4	18241921	0.012860004	6.12e-07
4	18337344	0.012910516	6.12e-07
4	18432862	0.012961028	6.12e-07
4	18526221	0.01301154	6.12e-07
4	18623808	0.013062052	6.12e-07
4	18721679	0.013112564	6.12e-07
4	18816836	0.013163076	6.12e-07
4	18912657	0.013213588	6.12e-07
4	19011981	0.0132641	6.12e-07
4	19107105	0.013314612	6.12e-07
4	19202669	0.013365124	6.12e-07
4	19300961	0.013415636	6.12e-07
4	19397688	0.013466148	6.12e-07
4	19494144	0.01351666	6.12e-07
4	19591612	0.013567172	6.12e-07
4	19687804	0.013617684	6.12e-07
4	19784947	0.013668196	6.12e-07
4	19882399	0.013718708	6.12e-07
4	19977718	0.01376922	6.12e-07
4	20075882	0.013819732	6.12e-07
4	20175432	0.013870244	6.12e-07
4	20272138	0.013920756	6.12e-07
4	20368700	0.013971268	6.12e-07
4	20468125	0.01402178	6.12e-07
4	20565042	0.014072292	6.12e-07
4	20661518	0.014122804	6.12e-07
4	20760347	0.014173316	6.12e-07
4	20858210	0.014223828	6.12e-07
4	20953982	0.01427434	6.12e-07
4	21051484	0.014324852	6.12e-07
4	21149938	0.014375364	6.12e-07
4	21245744	0.014425876	6.12e-07
4	21342571	0.014476388	6.12e-07
4	21439343	0.0145269	6.12e-07
4	21536451	0.014577412	6.12e-07
4	21634909	0.014627924	6.12e-07
4	21731432	0.014678436	6.12e-07
4	21827074	0.014728948	6.12e-07
4	21925667	0.01477946	6.12e-07
4	22018877	0.014829972	6.12e-07
4	22110546	0.014880484	6.12e-07
4	22204086	0.014930996	6.12e-07
4	22296592	0.014981508	6.12e-07
4	22389936	0.01503202	6.12e-07
4	22488395	0.015082532	6.12e-07
4	22584516	0.015133044	6.12e-07
4	22680706	0.015183556	6.12e-07
4	22779845	0.015234068	6.12e-07
4	22876936	0.01528458	6.12e-07
4	22972661	0.015335092	6.12e-07
4	23069168	0.015385604	6.12e-07
4	23163314	0.015436116	6.12e-07
4	23257155	0.015486628	6.12e-07
4	23352801	0.01553714	6.12e-07
4	23443678	0.015587652	6.12e-07
4	23524282	0.015638164	6.12e-07
4	23607567	0.015688676	6.12e-07
4	23687791	0.015739188	6.12e-07
4	23768397	0.0157897	6.12e-07
4	23851149	0.015840212	6.12e-07
4	23931769	0.015890724	6.12e-07
4	24011559	0.015941236	6.12e-07
4	24094745	0.015991748	6.12e-07
4	24175351	0.01604226	6.12e-07
4	24255608	0.016092772	6.12e-07
4	24338415	0.016143284	6.12e-07
4	24418147	0.016193796	6.12e-07
4	24498882	0.016244308	6.12e-07
4	24582753	0.01629482	6.12e-07
4	24662640	0.016345332	6.12e-07
4	24742551	0.016395844	6.12e-07
4	24825021	0.016446356	6.12e-07
4	24905886	0.016496868	6.12e-07
4	24986264	0.01654738	6.12e-07
4	25068122	0.016597892	6.12e-07
4	25148202	0.016648404	6.12e-07
4	25225740	0.016698916	6.12e-07
4	25298034	0.016749428	6.12e-07
4	25368432	0.01679994	6.12e-07
4	25438565	0.016850452	6.12e-07
4	25511087	0.016900964	6.12e-07
4	25582250	0.016951476	6.12e-07
4	25652980	0.017001988	6.12e-07
4	25727350	0.0170525	6.12e-07
4	25801848	0.017103012	6.12e-07
5	6264742	0.007051324	8.12e-07
5	6372371	0.007101836	8.12e-07
5	6483121	0.00715235	8.14e-07
5	6591609	0.00720286	8.12e-07
5	6700162	0.007253372	8.12e-07
5	6810243	0.007303886	8.14e-07
5	6919416	0.007354396	8.12e-07
5	7027014	0.007404908	8.12e-07
5	7138736	0.007455422	8.14e-07
5	7247026	0.007505932	8.12e-07
5	7354350	0.007556444	8.12e-07
5	7464672	0.007606958	8.14e-07
5	7574385	0.007657468	8.12e-07
5	7682399	0.00770798	8.12e-07
5	7792757	0.007758494	8.14e-07
5	7900813	0.007809004	8.12e-07
5	8009785	0.007859516	8.12e-07
5	8119857	0.00791003	8.14e-07
5	8227397	0.00796054	8.12e-07
5	8337741	0.008011052	8.12e-07
5	8447698	0.008061566	8.14e-07
5	8555614	0.008112076	8.12e-07
5	8664266	0.008162588	8.12e-07
5	8774919	0.008213102	8.14e-07
5	8883213	0.008263612	8.12e-07
5	8991097	0.008314124	8.12e-07
5	9101405	0.008364638	8.14e-07
5	9209757	0.008415148	8.12e-07
5	9318539	0.00846566	8.12e-07
5	9429104	0.008516174	8.14e-07
5	9537109	0.008566684	8.12e-07
5	9645772	0.008617196	8.12e-07
5	9756465	0.00866771	8.14e-07
5	9864484	0.00871822	8.12e-07
5	9972686	0.008768732	8.12e-07
5	10083423	0.008819246	8.14e-07
5	10191068	0.008869756	8.12e-07
5	10299936	0.008920268	8.12e-07
5	10409972	0.008970782	8.14e-07
5	10518566	0.009021292	8.12e-07
5	10630398	0.009071804	8.12e-07
5	10743511	0.009122318	8.14e-07
5	10852917	0.009172828	8.12e-07
5	10964447	0.00922334	8.12e-07
5	11078085	0.009273854	8.14e-07
5	11188924	0.009324364	8.12e-07
5	11299455	0.009374876	8.12e-07
5	11412033	0.00942539	8.14e-07
5	11522574	0.0094759	8.12e-07
5	11634872	0.009526412	8.12e-07
5	11748031	0.009576926	8.14e-07
5	11857797	0.009627436	8.12e-07
5	11969247	0.009677948	8.12e-07
5	12082887	0.009728462	8.14e-07
5	12192825	0.009778972	8.12e-07
5	12304748	0.009829484	8.12e-07
5	12417037	0.009879998	8.14e-07
5	12527738	0.009930508	8.12e-07
5	12640036	0.00998102	8.12e-07
5	12752767	0.010031534	8.14e-07
5	12862570	0.010082044	8.12e-07
5	12974920	0.010132556	8.12e-07
5	13088247	0.01018307	8.14e-07
5	13197847	0.01023358	8.12e-07
5	13308585	0.010284092	8.12e-07
5	13422543	0.010334606	8.14e-07
5	13532996	0.010385116	8.12e-07
5	13643346	0.010435628	8.12e-07
5	13756770	0.010486142	8.14e-07
5	13867182	0.010536652	8.12e-07
5	13973468	0.010587164	8.12e-07
5	14068232	0.010637678	8.14e-07
5	14160563	0.010688188	8.12e-07
5	14254185	0.0107387	8.12e-07
5	14348788	0.010789214	8.14e-07
5	14440956	0.010839724	8.12e-07
5	14532828	0.010890236	8.12e-07
5	14627502	0.01094075	8.14e-07
5	14718756	0.01099126	8.12e-07
5	14811103	0.011041772	8.12e-07
5	14908330	0.011092286	8.14e-07
5	15004448	0.011142796	8.12e-07
5	15098799	0.011193308	8.12e-07
5	15195288	0.011243822	8.14e-07
5	15290172	0.011294332	8.12e-07
5	15385474	0.011344844	8.12e-07
5	15483085	0.011395358	8.14e-07
5	15576845	0.011445868	8.12e-07
5	15671498	0.01149638	8.12e-07
5	15768722	0.011546894	8.14e-07
5	15863298	0.011597404	8.12e-07
5	15958404	0.011647916	8.12e-07
5	16055381	0.01169843	8.14e-07
5	16148329	0.01174894	8.12e-07
5	16243755	0.011799452	8.12e-07
5	16341674	0.011849966	8.14e-07
5	16435298	0.011900476	8.12e-07
5	16529613	0.011950988	8.12e-07
5	16627174	0.012001502	8.14e-07
5	16721144	0.012052012	8.12e-07
5	16815461	0.012102524	8.12e-07
5	16911835	0.012153038	8.14e-07
5	17007148	0.012203548	8.12e-07
5	17101955	0.01225406	8.12e-07
5	17198142	0.012304574	8.14e-07
5	17292615	0.012355084	8.12e-07
5	17387813	0.012405596	8.12e-07
5	17483548	0.01245611	8.14e-07
5	17578067	0.01250662	8.12e-07
5	17672610	0.012557132	8.12e-07
5	17768857	0.012607646	8.14e-07
5	17863064	0.012658156	8.12e-07
5	17957861	0.012708668	8.12e-07
5	18054511	0.012759182	8.14e-07
5	18147969	0.012809692	8.12e-07
5	18242364	0.012860204	8.12e-07
5	18340085	0.012910718	8.14e-07
5	18433289	0.012961228	8.12e-07
5	18526752	0.01301174	8.12e-07
5	18626376	0.013062254	8.14e-07
5	18722188	0.013112764	8.12e-07
5	18817455	0.013163276	8.12e-07
5	18915189	0.01321379	8.14e-07
5	19012509	0.0132643	8.12e-07
5	19107598	0.013314812	8.12e-07
5	19205305	0.013365326	8.14e-07
5	19301538	0.013415836	8.12e-07
5	19398233	0.013466348	8.12e-07
5	19496787	0.013516862	8.14e-07
5	19592070	0.013567372	8.12e-07
5	19688362	0.013617884	8.12e-07
5	19787629	0.013668398	8.14e-07
5	19882812	0.013718908	8.12e-07
5	19978220	0.01376942	8.12e-07
5	20078534	0.013819934	8.14e-07
5	20175943	0.013870444	8.12e-07
5	20272610	0.013920956	8.12e-07
5	20371305	0.01397147	8.14e-07
5	20468615	0.01402198	8.12e-07
5	20565631	0.014072492	8.12e-07
5	20662005	0.014123004	8.12e-07
5	20760846	0.014173516	8.12e-07
5	20858737	0.014224028	8.12e-07
5	20954475	0.01427454	8.12e-07
5	21052040	0.014325052	8.12e-07
5	21150452	0.014375564	8.12e-07
5	21246255	0.014426076	8.12e-07
5	21343124	0.014476588	8.12e-07
5	21439801	0.0145271	8.12e-07
5	21537040	0.014577612	8.12e-07
5	21635467	0.014628124	8.12e-07
5	21732008	0.014678636	8.12e-07
5	21827683	0.014729148	8.12e-07
5	21926078	0.01477966	8.12e-07
5	22019415	0.014830172	8.12e-07
5	22111005	0.014880684	8.12e-07
5	22204577	0.014931196	8.12e-07
5	22297212	0.014981708	8.12e-07
5	22390419	0.01503222	8.12e-07
5	22488881	0.015082732	8.12e-07
5	22585050	0.015133244	8.12e-07
5	22681178	0.015183756	8.12e-07
5	22780357	0.015234268	8.12e-07
5	22877433	0.01528478	8.12e-07
5	22973135	0.015335292	8.12e-07
5	23069723	0.015385804	8.12e-07
5	23163803	0.015436316	8.12e-07
5	23257613	0.015486828	8.12e-07
5	23353396	0.01553734	8.12e-07
5	23444120	0.015587852	8.12e-07
5	23524827	0.015638364	8.12e-07
5	23608066	0.015688876	8.12e-07
5	23688225	0.015739388	8.12e-07
5	23768854	0.0157899	8.12e-07
5	23851641	0.015840412	8.12e-07
5	23932185	0.015890924	8.12e-07
5	24012017	0.015941436	8.12e-07
5	24095229	0.015991948	8.12e-07
5	24175766	0.01604246	8.12e-07
5	24256082	0.016092972	8.12e-07
5	24338860	0.016143484	8.12e-07
5	24418634	0.016193996	8.12e-07
5	24499339	0.016244508	8.12e-07
5	24583249	0.01629502	8.12e-07
5	24663158	0.016345532	8.12e-07
5	24743047	0.016396044	8.12e-07
5	24825484	0.016446556	8.12e-07
5	24906332	0.016497068	8.12e-07
5	24986759	0.01654758	8.12e-07
5	25068503	0.016598092	8.12e-07
5	25148682	0.016648604	8.12e-07
5	25226213	0.016699116	8.12e-07
5	25298459	0.016749628	8.12e-07
5	25368937	0.01680014	8.12e-07
5	25438946	0.016850652	8.12e-07
5	25511526	0.016901164	8.12e-07
5	25582651	0.016951676	8.12e-07
5	25653423	0.017002188	8.12e-07
5	25727875	0.0170527	8.12e-07
5	25802280	0.017103212	8.12e-07
6	6265395	0.007051524	1.012e-06
6	6372841	0.007102036	1.012e-06
6	6483625	0.00715255	1.014e-06
6	6592101	0.00720306	1.012e-06
6	6700597	0.007253572	1.012e-06
6	6810769	0.007304086	1.014e-06
6	6920877	0.007355108	1.524e-06
6	7027490	0.007405108	1.012e-06
6	7139312	0.007455622	1.014e-06
6	7247487	0.007506132	1.012e-06
6	7354963	0.007556644	1.012e-06
6	7465199	0.007607158	1.014e-06
6	7575867	0.00765818	1.524e-06
6	7683052	0.00770818	1.012e-06
6	7793245	0.007758694	1.014e-06
6	7901366	0.007809204	1.012e-06
6	8010327	0.007859716	1.012e-06
6	8120334	0.00791023	1.014e-06
6	8228014	0.00796074	1.012e-06
6	8338222	0.008011252	1.012e-06
6	8448265	0.008061766	1.014e-06
6	8557132	0.008112788	1.524e-06
6	8664705	0.008162788	1.012e-06
6	8775379	0.008213302	1.014e-06
6	8883768	0.008263812	1.012e-06
6	8991496	0.008314324	1.012e-06
6	9101997	0.008364838	1.014e-06
6	9210263	0.008415348	1.012e-06
6	9319062	0.00846586	1.012e-06
6	9430678	0.008516886	1.526e-06
6	9537628	0.008566884	1.012e-06
6	9646244	0.008617396	1.012e-06
6	9756902	0.00866791	1.014e-06
6	9864945	0.00871842	1.012e-06
6	9973284	0.008768932	1.012e-06
6	10084996	0.008819958	1.526e-06
6	10191705	0.008869956	1.012e-06
6	10300457	0.008920468	1.012e-06
6	10410372	0.008970982	1.014e-06
6	10519224	0.009021492	1.012e-06
6	10589155	0.00905255	2.038e-06
6	10630896	0.009072004	1.012e-06
6	10700817	0.00910306	2.036e-06
6	10744045	0.009122518	1.014e-06
6	10810186	0.009153572	2.036e-06
6	10853327	0.009173028	1.012e-06
6	10923190	0.009204086	2.038e-06
6	10965474	0.009223845661	1.317661e-06
6	11034853	0.009254598	2.038e-06
6	11078695	0.009274054	1.014e-06
6	11145713	0.009305108	2.036e-06
6	11189469	0.009324564	1.012e-06
6	11255576	0.009355108	1.524e-06
6	11300037	0.009375076	1.012e-06
6	11369195	0.009406134	2.038e-06
6	11412594	0.00942559	1.014e-06
6	11479517	0.009456644	2.036e-06
6	11523062	0.0094761	1.012e-06
6	11594038	0.009507158	2.038e-06
6	11635503	0.009526612	1.012e-06
6	11703862	0.009557158	1.526e-06
6	11748566	0.009577126	1.014e-06
6	11814931	0.00960818	2.036e-06
6	11859085	0.009628011661	1.387661e-06
6	11928275	0.009658694	2.038e-06
6	11969737	0.009678148	1.012e-06
6	12039362	0.009709206	2.038e-06
6	12083449	0.009728662	1.014e-06
6	12149084	0.009759204	1.524e-06
6	12193357	0.009779172	1.012e-06
6	12260194	0.009809716	1.524e-06
6	12305216	0.009829684	1.012e-06
6	12374450	0.009860742	2.038e-06
6	12417606	0.009880198	1.014e-06
6	12484331	0.009911252	2.036e-06
6	12528206	0.009930708	1.012e-06
6	12598602	0.009961766	2.038e-06
6	12641550	0.009981732	1.524e-06
6	12710283	0.010012278	2.038e-06
6	12753423	0.010031734	1.014e-06
6	12819495	0.010062788	2.036e-06
6	12863139	0.010082244	1.012e-06
6	12933603	0.010113302	2.038e-06
6	12975454	0.010132756	1.012e-06
6	13045202	0.010163814	2.038e-06
6	13088902	0.01018327	1.014e-06
6	13155104	0.010214324	2.036e-06
6	13198274	0.01023378	1.012e-06
6	13267799	0.010264838	2.038e-06
6	13309121	0.010284292	1.012e-06
6	13379673	0.01031535	2.038e-06
6	13423204	0.010334806	1.014e-06
6	13490111	0.01036586	2.036e-06
6	13533457	0.010385316	1.012e-06
6	13599328	0.01041586	1.524e-06
6	13643906	0.010435828	1.012e-06
6	13713970	0.010467075661	2.227661e-06
6	13757370	0.010486342	1.014e-06
6	13824378	0.010517396	2.036e-06
6	13867701	0.010536852	1.012e-06
6	13937195	0.01056791	2.038e-06
6	13974012	0.010587455661	1.103661e-06
6	14031777	0.010618422	2.038e-06
6	14068760	0.010637878	1.014e-06
6	14124281	0.010668932	2.036e-06
6	14161015	0.010688388	1.012e-06
6	14216631	0.010718932	1.524e-06
6	14254590	0.0107389	1.012e-06
6	14313035	0.010769958	2.038e-06
6	14349397	0.010789414	1.014e-06
6	14404675	0.010820468	2.036e-06
6	14441399	0.010839924	1.012e-06
6	14499004	0.01087098	2.036e-06
6	14533253	0.010890436	1.012e-06
6	14591030	0.010920982	1.526e-06
6	14628027	0.01094095	1.014e-06
6	14683086	0.010972004	2.036e-06
6	14719225	0.01099146	1.012e-06
6	14777283	0.011022516	2.036e-06
6	14811551	0.011041972	1.012e-06
6	14872240	0.01107303	2.038e-06
6	14908941	0.011092486	1.014e-06
6	14968386	0.01112354	2.036e-06
6	15004885	0.011142996	1.012e-06
6	15065583	0.011174052	2.036e-06
6	15099201	0.011193508	1.012e-06
6	15160314	0.011224566	2.038e-06
6	15195822	0.011244022	1.014e-06
6	15253917	0.011275076	2.036e-06
6	15290548	0.011294532	1.012e-06
6	15351819	0.011325588	2.036e-06
6	15385916	0.011345044	1.012e-06
6	15446844	0.01137559	1.526e-06
6	15483504	0.011395558	1.014e-06
6	15541285	0.011426612	2.036e-06
6	15577359	0.011446068	1.012e-06
6	15637931	0.011477124	2.036e-06
6	15671987	0.01149658	1.012e-06
6	15733270	0.011527638	2.038e-06
6	15769156	0.011547094	1.014e-06
6	15826198	0.011577636	1.524e-06
6	15863681	0.011597604	1.012e-06
6	15924815	0.01162866	2.036e-06
6	15958878	0.011648116	1.012e-06
6	16020083	0.011679174	2.038e-06
6	16055900	0.01169863	1.014e-06
6	16113154	0.011729684	2.036e-06
6	16148847	0.01174914	1.012e-06
6	16209469	0.011780199	2.039e-06
6	16244259	0.011799652	1.012e-06
6	16306415	0.01183071	2.038e-06
6	16342239	0.011850166	1.014e-06
6	16399729	0.01188122	2.036e-06
6	16435683	0.011900676	1.012e-06
6	16492868	0.01193122	1.524e-06
6	16530609	0.011951562992	1.386992e-06
6	16590374	0.011981734	1.526e-06
6	16627702	0.012001702	1.014e-06
6	16685402	0.012032756	2.036e-06
6	16721784	0.012052212	1.012e-06
6	16782031	0.012083268	2.036e-06
6	16816036	0.012102724	1.012e-06
6	16876643	0.012133782	2.038e-06
6	16912406	0.012153238	1.014e-06
6	16970501	0.012184292	2.036e-06
6	17007664	0.012203748	1.012e-06
6	17065320	0.012234292	1.524e-06
6	17102366	0.01225426	1.012e-06
6	17163116	0.012285318	2.038e-06
6	17198747	0.012304774	1.014e-06
6	17256420	0.012335828	2.036e-06
6	17293055	0.012355284	1.012e-06
6	17354358	0.01238634	2.036e-06
6	17388174	0.012405796	1.012e-06
6	17448762	0.012436854	2.038e-06
6	17484146	0.01245631	1.014e-06
6	17542065	0.012487364	2.036e-06
6	17578597	0.01250682	1.012e-06
6	17639159	0.012537876	2.036e-06
6	17673277	0.012557434436	1.114436e-06
6	17733513	0.012587878	1.526e-06
6	17769373	0.012607846	1.014e-06
6	17826386	0.012638388	1.524e-06
6	17863500	0.012658356	1.012e-06
6	17921030	0.0126889	1.524e-06
6	17958209	0.012708868	1.012e-06
6	18019371	0.012739926	2.038e-06
6	18055102	0.012759382	1.014e-06
6	18112274	0.012789924	1.524e-06
6	18148479	0.012809892	1.012e-06
6	18205441	0.012840436	1.524e-06
6	18242744	0.012860404	1.012e-06
6	18304555	0.012891462	2.038e-06
6	18340689	0.012910918	1.014e-06
6	18398414	0.012941972	2.036e-06
6	18433848	0.012961428	1.012e-06
6	18491433	0.012992484	2.036e-06
6	18527207	0.01301194	1.012e-06
6	18588314	0.013042998	2.038e-06
6	18628301	0.013062966	1.526e-06
6	18685024	0.013093508	2.036e-06
6	18723390	0.013113476	1.524e-06
6	18779829	0.01314402	2.036e-06
6	18817924	0.013163476	1.012e-06
6	18876461	0.013194022	1.526e-06
6	18915842	0.01321399	1.014e-06
6	18974421	0.013244534201	1.526201e-06
6	19012946	0.0132645	1.012e-06
6	19069397	0.013295044	1.524e-06
6	19108149	0.013315012	1.012e-06
6	19168221	0.01334607	2.038e-06
6	19205745	0.013365526	1.014e-06
6	19264019	0.01339658	2.036e-06
6	19301979	0.013416036	1.012e-06
6	19360355	0.013447092	2.036e-06
6	19398710	0.013466548	1.012e-06
6	19458971	0.013497606	2.038e-06
6	19497326	0.013517062	1.014e-06
6	19555060	0.013548116	2.036e-06
6	19592563	0.013567572	1.012e-06
6	19650674	0.013598628	2.036e-06
6	19689701	0.013618596	1.524e-06
6	19749981	0.013649142	2.038e-06
6	19788290	0.013668598	1.014e-06
6	19845840	0.013699652	2.036e-06
6	19883531	0.013719216436	1.120436e-06
6	19940700	0.013750164	2.036e-06
6	19978657	0.01376962	1.012e-06
6	20040207	0.013800678	2.038e-06
6	20079195	0.013820134	1.014e-06
6	20138312	0.013851188	2.036e-06
6	20176397	0.013870644	1.012e-06
6	20233835	0.013901188	1.524e-06
6	20273071	0.013921156	1.012e-06
6	20334229	0.013952214	2.038e-06
6	20371960	0.01397167	1.014e-06
6	20430534	0.014002724	2.036e-06
6	20469113	0.01402218	1.012e-06
6	20527445	0.014053236	2.036e-06
6	20566053	0.014072692	1.012e-06
6	20626464	0.014103238	1.526e-06
6	20664740	0.014123206	1.014e-06
6	20721857	0.014153748	1.524e-06
6	20761323	0.014173716	1.012e-06
6	20820145	0.014204772	2.036e-06
6	20859174	0.014224228	1.012e-06
6	20919101	0.014254774	1.526e-06
6	20957007	0.014274742	1.014e-06
6	21014352	0.014305796	2.036e-06
6	21052432	0.014325252	1.012e-06
6	21112042	0.014356308	2.036e-06
6	21150989	0.014375764	1.012e-06
6	21211469	0.014406822	2.038e-06
6	21248843	0.014426278	1.014e-06
6	21306038	0.014457332	2.036e-06
6	21343613	0.014476788	1.012e-06
6	21401576	0.014507844	2.036e-06
6	21440262	0.0145273	1.012e-06
6	21501388	0.014557846	1.526e-06
6	21539589	0.014577814	1.014e-06
6	21597847	0.014608868	2.036e-06
6	21636016	0.014628324	1.012e-06
6	21694147	0.01465938	2.036e-06
6	21732467	0.014678836	1.012e-06
6	21791930	0.014709382	1.526e-06
6	21830297	0.01472935	1.014e-06
6	21887867	0.014759892	1.524e-06
6	21927444	0.014780372	1.524e-06
6	21982730	0.014810916	2.036e-06
6	22020665	0.014830884	1.524e-06
6	22077885	0.01486143	2.038e-06
6	22113570	0.014880886	1.014e-06
6	22168904	0.01491194	2.036e-06
6	22205068	0.014931396	1.012e-06
6	22260693	0.014962452	2.036e-06
6	22297599	0.014981908	1.012e-06
6	22356046	0.015012966	2.038e-06
6	22393034	0.015032422	1.014e-06
6	22451579	0.015062964	1.524e-06
6	22489271	0.015082932	1.012e-06
6	22547637	0.015113476	1.524e-06
6	22585569	0.015133444	1.012e-06
6	22647160	0.015164502	2.038e-06
6	22683699	0.015183958	1.014e-06
6	22743128	0.015215012	2.036e-06
6	22780887	0.015234468	1.012e-06
6	22840287	0.015265524	2.036e-06
6	22877916	0.01528498	1.012e-06
6	22939104	0.015316038	2.038e-06
6	22975710	0.015335494	1.014e-06
6	23034361	0.015366548	2.036e-06
6	23070180	0.015386004	1.012e-06
6	23127752	0.01541706	2.036e-06
6	23164263	0.015436516	1.012e-06
6	23224511	0.015467574	2.038e-06
6	23260149	0.01548703	1.014e-06
6	23316812	0.015517572	1.524e-06
6	23353778	0.01553754	1.012e-06
6	23411938	0.015568596	2.036e-06
6	23444564	0.015588052	1.012e-06
6	23496455	0.01561911	2.038e-06
6	23527292	0.015638566	1.014e-06
6	23576951	0.01566962	2.036e-06
6	23608460	0.015689076	1.012e-06
6	23657994	0.015720132	2.036e-06
6	23688765	0.015739588	1.012e-06
6	23740576	0.015770646	2.038e-06
6	23771295	0.015790102	1.014e-06
6	23820672	0.015821156	2.036e-06
6	23852154	0.015840612	1.012e-06
6	23901345	0.015871668	2.036e-06
6	23932610	0.015891124	1.012e-06
6	23983872	0.015922182	2.038e-06
6	24014533	0.015941638	1.014e-06
6	24065077	0.015972692	2.036e-06
6	24095652	0.015992148	1.012e-06
6	24144757	0.016023204	2.036e-06
6	24176211	0.01604266	1.012e-06
6	24227906	0.016073718	2.038e-06
6	24256498	0.016093172	1.012e-06
6	24308047	0.016124228	2.036e-06
6	24339240	0.016143684	1.012e-06
6	24388445	0.01617474	2.036e-06
6	24419034	0.016194196	1.012e-06
6	24470897	0.016225254	2.038e-06
6	24499758	0.016244708	1.012e-06
6	24552298	0.016275764	2.036e-06
6	24583692	0.01629522	1.012e-06
6	24632721	0.016326276	2.036e-06
6	24663580	0.016345732	1.012e-06
6	24714734	0.01637679	2.038e-06
6	24743394	0.016396244	1.012e-06
6	24794839	0.0164273	2.036e-06
6	24825909	0.016446756	1.012e-06
6	24876155	0.016477812	2.036e-06
6	24906722	0.016497268	1.012e-06
6	24958415	0.016528326	2.038e-06
6	24987180	0.01654778	1.012e-06
6	25038423	0.016578836	2.036e-06
6	25069009	0.016598292	1.012e-06
6	25118072	0.016629348	2.036e-06
6	25149000	0.016648804	1.012e-06
6	25200797	0.016679862	2.038e-06
6	25226592	0.016699316	1.012e-06
6	25271983	0.016730372	2.036e-06
6	25298880	0.016749828	1.012e-06
6	25342279	0.016780884	2.036e-06
6	25369306	0.01680034	1.012e-06
6	25414842	0.016831398	2.038e-06
6	25439344	0.016850852	1.012e-06
6	25484723	0.016881908	2.036e-06
6	25511811	0.016901364	1.012e-06
6	25555453	0.01693242	2.036e-06
6	25583102	0.016951876	1.012e-06
6	25629092	0.016982934	2.038e-06
6	25653781	0.017002388	1.012e-06
6	25698625	0.017033444	2.036e-06
6	25728344	0.0170529	1.012e-06
6	25772776	0.017083956	2.036e-06
6	25802665	0.017103412	1.012e-06
6	25849993	0.01713447	2.038e-06
6	25921594	0.01718498	2.036e-06
6	25995244	0.017235492	2.036e-06
6	26073910	0.017286006	2.038e-06
6	26151244	0.017336516	2.036e-06
6	26228878	0.017387028	2.036e-06
6	26310857	0.017437542	2.038e-06
6	26391405	0.017488052	2.036e-06
6	26474317	0.017538564	2.036e-06
6	26559333	0.017589078	2.038e-06
6	26641090	0.017639588	2.036e-06
6	26723477	0.0176901	2.036e-06
6	26809355	0.017740614	2.038e-06
6	26890110	0.017791124	2.036e-06
6	26972997	0.017841636	2.036e-06
6	27058475	0.01789215	2.038e-06
6	27141073	0.01794266	2.036e-06
6	27223706	0.017993172	2.036e-06
6	27309201	0.018043686	2.038e-06
6	27390497	0.018094196	2.036e-06
6	27473581	0.018144708	2.036e-06
6	27559163	0.018195222	2.038e-06
6	27640316	0.018245732	2.036e-06
6	27722998	0.018296244	2.036e-06
6	27808184	0.018346758	2.038e-06
6	27890766	0.018397268	2.036e-06
6	27973299	0.01844778	2.036e-06
6	28058230	0.018498294	2.038e-06
6	28140238	0.018548804	2.036e-06
6	28223190	0.018599316	2.036e-06
6	28307764	0.01864983	2.038e-06
6	28389120	0.01870034	2.036e-06
6	28472034	0.018750852	2.036e-06
6	28557769	0.018801366	2.038e-06
6	28638709	0.018851876	2.036e-06
6	28721294	0.018902388	2.036e-06
6	28807498	0.018952902	2.038e-06
6	28889235	0.019003412	2.036e-06
6	28973441	0.019053924	2.036e-06
6	29060563	0.019104438	2.038e-06
7	6265397	0.007051524	1.012e-06
7	6376173	0.007102548	1.524e-06
7	6484444	0.007152894321	1.358321e-06
7	6592103	0.00720306	1.012e-06
7	6700599	0.007253572	1.012e-06
7	6810771	0.007304086	1.014e-06
7	6919918	0.007354596	1.012e-06
7	7027492	0.007405108	1.012e-06
7	7139314	0.007455622	1.014e-06
7	7247491	0.007506132	1.012e-06
7	7354965	0.007556644	1.012e-06
7	7465439	0.007607265315	1.121315e-06
7	7574859	0.007657668	1.012e-06
7	7683054	0.00770818	1.012e-06
7	7793247	0.007758694	1.014e-06
7	7901368	0.007809204	1.012e-06
7	8010329	0.007859716	1.012e-06
7	8120338	0.00791023	1.014e-06
7	8228016	0.00796074	1.012e-06
7	8339222	0.008011764	1.524e-06
7	8448269	0.008061766	1.014e-06
7	8556198	0.008112276	1.012e-06
7	8664709	0.008162788	1.012e-06
7	8775381	0.008213302	1.014e-06
7	8883772	0.008263812	1.012e-06
7	8991498	0.008314324	1.012e-06
7	9102001	0.008364838	1.014e-06
7	9210265	0.008415348	1.012e-06
7	9319064	0.00846586	1.012e-06
7	9429613	0.008516374	1.014e-06
7	9538695	0.008567396	1.524e-06
7	9646250	0.008617396	1.012e-06
7	9756904	0.00866791	1.014e-06
7	9864949	0.00871842	1.012e-06
7	9973286	0.008768932	1.012e-06
7	10083860	0.008819446	1.014e-06
7	10191709	0.008869956	1.012e-06
7	10300459	0.008920468	1.012e-06
7	10410374	0.008970982	1.014e-06
7	10519228	0.009021492	1.012e-06
7	10630898	0.009072004	1.012e-06
7	10745112	0.009122931537	1.427537e-06
7	10853329	0.009173028	1.012e-06
7	10964890	0.00922354	1.012e-06
7	11078701	0.009274054	1.014e-06
7	11189471	0.009324564	1.012e-06
7	11300039	0.009375076	1.012e-06
7	11412598	0.00942559	1.014e-06
7	11523064	0.0094761	1.012e-06
7	11635505	0.009526612	1.012e-06
7	11748572	0.009577126	1.014e-06
7	11858381	0.009627636	1.012e-06
7	11969739	0.009678148	1.012e-06
7	12083453	0.009728662	1.014e-06
7	12193359	0.009779172	1.012e-06
7	12305220	0.009829684	1.012e-06
7	12417610	0.009880198	1.014e-06
7	12528210	0.009930708	1.012e-06
7	12640513	0.009981235118	1.027118e-06
7	12753429	0.010031734	1.014e-06
7	12863143	0.010082244	1.012e-06
7	12975458	0.010132756	1.012e-06
7	13088908	0.01018327	1.014e-06
7	13198276	0.01023378	1.012e-06
7	13309123	0.010284292	1.012e-06
7	13423208	0.010334806	1.014e-06
7	13533459	0.010385316	1.012e-06
7	13643910	0.010435828	1.012e-06
7	13757372	0.010486342	1.014e-06
7	13867705	0.010536852	1.012e-06
7	13973923	0.010587364	1.012e-06
7	14068764	0.010637878	1.014e-06
7	14161017	0.010688388	1.012e-06
7	14254594	0.0107389	1.012e-06
7	14349399	0.010789414	1.014e-06
7	14441401	0.010839924	1.012e-06
7	14533255	0.010890436	1.012e-06
7	14628031	0.01094095	1.014e-06
7	14719229	0.01099146	1.012e-06
7	14811555	0.011041972	1.012e-06
7	14832789	0.011051737232	1.225232e-06
7	14908945	0.011092486	1.014e-06
7	14928453	0.011102548	1.524e-06
7	15004891	0.011142996	1.012e-06
7	15023247	0.011152548	1.012e-06
7	15099203	0.011193508	1.012e-06
7	15120059	0.011203062	1.014e-06
7	15195826	0.011244022	1.014e-06
7	15214340	0.011253572	1.012e-06
7	15290550	0.011294532	1.012e-06
7	15309004	0.011304084	1.012e-06
7	15385918	0.011345044	1.012e-06
7	15407189	0.011354771073	1.187073e-06
7	15483506	0.011395558	1.014e-06
7	15502624	0.01140562	1.524e-06
7	15577363	0.011446068	1.012e-06
7	15595595	0.01145562	1.012e-06
7	15671991	0.01149658	1.012e-06
7	15693918	0.011506646	1.526e-06
7	15769160	0.011547094	1.014e-06
7	15787472	0.011556644	1.012e-06
7	15863683	0.011597604	1.012e-06
7	15882115	0.011607156	1.012e-06
7	15958882	0.011648116	1.012e-06
7	15980627	0.011658150318	1.494318e-06
7	16055902	0.01169863	1.014e-06
7	16074171	0.01170818	1.012e-06
7	16148851	0.01174914	1.012e-06
7	16167234	0.011758692	1.012e-06
7	16244261	0.011799652	1.012e-06
7	16265335	0.011809206	1.014e-06
7	16342243	0.011850166	1.014e-06
7	16360315	0.011859716	1.012e-06
7	16435687	0.011900676	1.012e-06
7	16454080	0.011910228	1.012e-06
7	16530017	0.011951188	1.012e-06
7	16550773	0.011960742	1.014e-06
7	16627704	0.012001702	1.014e-06
7	16646850	0.012011764	1.524e-06
7	16721790	0.012052212	1.012e-06
7	16740091	0.012061764	1.012e-06
7	16816040	0.012102724	1.012e-06
7	16836680	0.012112278	1.014e-06
7	16912410	0.012153238	1.014e-06
7	16930530	0.012162788	1.012e-06
7	17007668	0.012203748	1.012e-06
7	17026441	0.012213556554	1.268554e-06
7	17102368	0.01225426	1.012e-06
[...]
72	35914782	0.02367866	1.524e-06
72	35983960	0.023729174	1.526e-06
72	36047772	0.023779684	1.524e-06
72	36112365	0.023830196	1.524e-06
72	36180619	0.02388071	1.526e-06
72	36247727	0.02393122	1.524e-06
72	36313294	0.023981732	1.524e-06
72	36381697	0.024032246	1.526e-06
72	36449339	0.024082756	1.524e-06
72	36515531	0.024133268	1.524e-06
72	36583660	0.024183782	1.526e-06
72	36651863	0.024234292	1.524e-06
72	36717839	0.024284804	1.524e-06
72	36785635	0.024335318	1.526e-06
72	36852780	0.024385828	1.524e-06
72	36919931	0.02443634	1.524e-06
72	36987917	0.024486854	1.526e-06
72	37055044	0.024537364	1.524e-06
72	37125426	0.024588391	2.039e-06
72	37190610	0.02463839	1.526e-06
72	37256762	0.0246889	1.524e-06
72	37325238	0.024739412	1.524e-06
72	37393300	0.024789926	1.526e-06
72	37460458	0.024840948	2.036e-06
72	37527568	0.024890948	1.524e-06
72	37597702	0.024941974	2.038e-06
72	37663775	0.024992236319	1.788319e-06
72	37731000	0.025042484	1.524e-06
72	37799481	0.025093042781	1.570781e-06
72	37865682	0.025143508	1.524e-06
72	37934105	0.025194532	2.036e-06
72	37997827	0.025245046	2.038e-06
72	38061191	0.025295044	1.524e-06
72	38125154	0.025345556	1.524e-06
72	38192808	0.025396421658	1.877658e-06
72	38257167	0.025446882925	1.826925e-06
72	38320374	0.025497092	1.524e-06
72	38387176	0.025547606	1.526e-06
72	38452688	0.025598116	1.524e-06
72	38516512	0.025648810098	1.706098e-06
72	38582494	0.025699142	1.526e-06
72	38646985	0.025749652	1.524e-06
72	38711094	0.025800164	1.524e-06
72	38777493	0.025850678	1.526e-06
72	38842286	0.025901188	1.524e-06
72	38905695	0.0259517	1.524e-06
72	38968208	0.026002214	1.526e-06
72	39028407	0.026053236	2.036e-06
72	39085554	0.026103236	1.524e-06
72	39140036	0.02615375	1.526e-06
72	39192535	0.026204772	2.036e-06
72	39246805	0.026254772	1.524e-06
72	39301681	0.026305758682	1.998682e-06
72	39354097	0.026355796	1.524e-06
72	39407077	0.02640682	2.036e-06
72	39462325	0.026456822	1.526e-06
72	39516185	0.026507844	2.036e-06
72	39568412	0.026557844	1.524e-06
72	39623545	0.02660887	2.038e-06
72	39676383	0.02665938	2.036e-06
72	39730412	0.026709755442	1.899442e-06
72	39785188	0.026760406	2.038e-06
72	39837024	0.026810404	1.524e-06
72	39890080	0.026860916	1.524e-06
72	39945776	0.026911942	2.038e-06
72	39998922	0.02696194	1.524e-06
72	40051515	0.027012479339	1.551339e-06
72	40106765	0.027062966	1.526e-06
72	40159207	0.027113716489	1.764489e-06
72	40209558	0.027163988	1.524e-06
72	40262378	0.027214582224	1.606224e-06
72	40311488	0.027265012	1.524e-06
72	40360750	0.027315524	1.524e-06
72	40412682	0.027366038	1.526e-06
72	40463147	0.027416613071	1.589071e-06
72	40512776	0.027467572	2.036e-06
72	40564274	0.027517574	1.526e-06
72	40613664	0.027568474058	1.914058e-06
72	40664376	0.027618606476	1.534476e-06
72	40716422	0.027669308356	1.724356e-06
72	40765629	0.027720132	2.036e-06
72	40815279	0.027770644	2.036e-06
72	40867388	0.02782102684	1.90684e-06
72	40917873	0.027871668	2.036e-06
72	40967252	0.02792218	2.036e-06
72	41016551	0.027972694	2.038e-06
72	41064291	0.028023204	2.036e-06
72	41114383	0.028073617288	1.937288e-06
72	41165434	0.02812423	2.038e-06
72	41213679	0.02817474	2.036e-06
72	41262531	0.028225252	2.036e-06
72	41312569	0.028275746649	2.018649e-06
72	41356339	0.028326276	2.036e-06
72	41400099	0.028376788	2.036e-06
72	41446292	0.028427115307	1.851307e-06
72	41492520	0.028477865419	2.089419e-06
72	41538131	0.028528223454	1.935454e-06
72	41586602	0.028578893187	2.093187e-06
72	41633672	0.028629502956	2.190956e-06
72	41684889	0.028681240956	3.416956e-06
72	41732562	0.028732464956	4.128956e-06
72	41782202	0.028782664956	3.816956e-06
72	41830022	0.028832354956	2.994956e-06
72	41878153	0.028884090956	4.218956e-06
72	41924720	0.028932654046	2.270046e-06
72	41974432	0.02898336518	2.46918e-06
72	42021606	0.029033706832	2.298832e-06
72	42069568	0.029085442832	3.522832e-06
72	42120821	0.029136156832	3.724832e-06
72	42166294	0.029186868832	3.924832e-06
72	42213625	0.029237582832	4.126832e-06
72	42258373	0.029286758832	2.790832e-06
72	42305506	0.029338494832	4.014832e-06
72	42350306	0.029388694832	3.702832e-06
72	42397601	0.029439408832	3.904832e-06
72	42443456	0.029490120832	4.104832e-06
72	42488108	0.029538758544	2.230544e-06
72	42536260	0.029590496544	3.456544e-06
72	42581247	0.029640696544	3.144544e-06
72	42628530	0.029691920544	3.856544e-06
72	42671596	0.029742122544	3.546544e-06
72	42717127	0.029792834544	3.746544e-06
72	42763445	0.029843546544	3.946544e-06
72	42807768	0.029893748544	3.636544e-06
72	42853124	0.029944460544	3.836544e-06
72	42899554	0.029995172544	4.036544e-06
72	42944226	0.030045374544	3.726544e-06
72	42989639	0.030096598544	4.438544e-06
72	43032738	0.030144708	2.036e-06
72	43074880	0.030195373169	2.189169e-06
72	43118419	0.030245719497	2.023497e-06
72	43162886	0.030297967497	3.759497e-06
72	43209008	0.030348681497	3.961497e-06
72	43252592	0.030399393497	4.161497e-06
72	43296318	0.030449593497	3.849497e-06
72	43341924	0.030499283497	3.027497e-06
72	43386137	0.030551019497	4.251497e-06
72	43429040	0.030599245978	1.965978e-06
72	43471535	0.030649882921	2.090921e-06
72	43517366	0.030700741249	2.437249e-06
72	43561788	0.030752477249	3.661249e-06
72	43607564	0.030803191249	3.863249e-06
72	43652116	0.030853903249	4.063249e-06
72	43695252	0.030904103249	3.751249e-06
72	43740502	0.030953793249	2.929249e-06
72	43785475	0.031005529249	4.153249e-06
72	43828787	0.031055729249	3.841249e-06
72	43874528	0.031106443249	4.043249e-06
73	32238936	0.021052548	2.036e-06
73	32324435	0.021103062	2.038e-06
73	32402636	0.021153574	2.038e-06
73	32478419	0.021204084	2.036e-06
73	32557348	0.021254598	2.038e-06
73	32630921	0.02130511	2.038e-06
73	32701575	0.02135562	2.036e-06
73	32773679	0.021406134	2.038e-06
73	32842246	0.021456646	2.038e-06
73	32912481	0.021507156	2.036e-06
73	32985020	0.02155767	2.038e-06
73	33054563	0.021608182	2.038e-06
73	33124506	0.021658692	2.036e-06
73	33195961	0.021709206	2.038e-06
73	33265641	0.021759718	2.038e-06
73	33336474	0.021810228	2.036e-06
73	33407832	0.021860742	2.038e-06
73	33476359	0.021911254	2.038e-06
73	33546420	0.021961764	2.036e-06
73	33618994	0.022012278	2.038e-06
73	33687631	0.02206279	2.038e-06
73	33757140	0.0221133	2.036e-06
73	33829422	0.022163814	2.038e-06
73	33899488	0.022214326	2.038e-06
73	33968962	0.022264836	2.036e-06
73	34040587	0.02231535	2.038e-06
73	34109544	0.022365862	2.038e-06
73	34180428	0.022416372	2.036e-06
73	34252229	0.022466886	2.038e-06
73	34321805	0.022517398	2.038e-06
73	34391362	0.022567908	2.036e-06
73	34463845	0.022618422	2.038e-06
73	34533462	0.022668934	2.038e-06
73	34602824	0.022719444	2.036e-06
73	34674781	0.022769956	2.036e-06
73	34745164	0.02282047	2.038e-06
73	34814464	0.02287098	2.036e-06
73	34885699	0.022921492	2.036e-06
73	34956491	0.022972006	2.038e-06
73	35025938	0.023022516	2.036e-06
73	35097607	0.023073028	2.036e-06
73	35167148	0.023123542	2.038e-06
73	35235289	0.023174052	2.036e-06
73	35304463	0.023224564	2.036e-06
73	35372236	0.023275078	2.038e-06
73	35440727	0.023325588	2.036e-06
73	35509615	0.0233761	2.036e-06
73	35577032	0.023426614	2.038e-06
73	35644057	0.023477124	2.036e-06
73	35715202	0.023527636	2.036e-06
73	35780885	0.02357815	2.038e-06
73	35847972	0.02362866	2.036e-06
73	35917350	0.023679172	2.036e-06
73	35984285	0.023729686	2.038e-06
73	36048134	0.023780196	2.036e-06
73	36114955	0.023830708	2.036e-06
73	36181147	0.023881222	2.038e-06
73	36248145	0.023931732	2.036e-06
73	36315820	0.023982244	2.036e-06
73	36382171	0.024032758	2.038e-06
73	36449746	0.024083268	2.036e-06
73	36518099	0.02413378	2.036e-06
73	36584061	0.024184294	2.038e-06
73	36652254	0.024234804	2.036e-06
73	36720431	0.024285316	2.036e-06
73	36786090	0.02433583	2.038e-06
73	36853176	0.02438634	2.036e-06
73	36922417	0.024436852	2.036e-06
73	36988310	0.024487366	2.038e-06
73	37055642	0.024537876	2.036e-06
73	37125428	0.024588391	2.039e-06
73	37191071	0.024638902	2.038e-06
73	37257095	0.024689412	2.036e-06
73	37327794	0.024739924	2.036e-06
73	37393769	0.024790438	2.038e-06
73	37460456	0.024840948	2.036e-06
73	37530157	0.02489146	2.036e-06
73	37597700	0.024941974	2.038e-06
73	37664049	0.024992484	2.036e-06
73	37733559	0.025042996	2.036e-06
73	37799838	0.02509351	2.038e-06
73	37866067	0.02514402	2.036e-06
73	37934103	0.025194532	2.036e-06
73	37997825	0.025245046	2.038e-06
73	38061711	0.025295556	2.036e-06
73	38127694	0.025346068	2.036e-06
73	38193004	0.025396582	2.038e-06
73	38257331	0.025447092	2.036e-06
73	38322962	0.025497604	2.036e-06
73	38387713	0.025548118	2.038e-06
73	38453178	0.025598628	2.036e-06
73	38516861	0.02564914	2.036e-06
73	38582875	0.025699654	2.038e-06
73	38647356	0.025750164	2.036e-06
73	38711542	0.025800676	2.036e-06
73	38777918	0.02585119	2.038e-06
73	38842799	0.0259017	2.036e-06
73	38906101	0.025952212	2.036e-06
73	38968624	0.026002726	2.038e-06
73	39028405	0.026053236	2.036e-06
73	39085807	0.026103748	2.036e-06
73	39140328	0.026154262	2.038e-06
73	39192533	0.026204772	2.036e-06
73	39247098	0.026255284	2.036e-06
73	39301716	0.026305798	2.038e-06
73	39354425	0.026356308	2.036e-06
73	39407075	0.02640682	2.036e-06
73	39462822	0.026457334	2.038e-06
73	39516183	0.026507844	2.036e-06
73	39568875	0.026558356	2.036e-06
73	39623543	0.02660887	2.038e-06
73	39676381	0.02665938	2.036e-06
73	39730534	0.026709892	2.036e-06
73	39785186	0.026760406	2.038e-06
73	39837229	0.026810916	2.036e-06
73	39890408	0.026861428	2.036e-06
73	39945774	0.026911942	2.038e-06
73	39999214	0.026962452	2.036e-06
73	40051803	0.027012964	2.036e-06
73	40107030	0.027063478	2.038e-06
73	40159461	0.027113988	2.036e-06
73	40209901	0.0271645	2.036e-06
73	40262650	0.027215014	2.038e-06
73	40311725	0.027265524	2.036e-06
73	40361057	0.027316036	2.036e-06
73	40413036	0.02736655	2.038e-06
73	40463425	0.02741706	2.036e-06
73	40512774	0.027467572	2.036e-06
73	40564596	0.027518086	2.038e-06
73	40613752	0.027568596	2.036e-06
73	40664642	0.027619108	2.036e-06
73	40716623	0.027669622	2.038e-06
73	40765627	0.027720132	2.036e-06
73	40815277	0.027770644	2.036e-06
73	40867474	0.027821158	2.038e-06
73	40917871	0.027871668	2.036e-06
73	40967250	0.02792218	2.036e-06
73	41016549	0.027972694	2.038e-06
73	41064289	0.028023204	2.036e-06
73	41114441	0.028073716	2.036e-06
73	41165432	0.02812423	2.038e-06
73	41213677	0.02817474	2.036e-06
73	41262529	0.028225252	2.036e-06
73	41312586	0.028275766	2.038e-06
73	41356337	0.028326276	2.036e-06
73	41400097	0.028376788	2.036e-06
73	41446370	0.028427302	2.038e-06
73	41492484	0.028477812	2.036e-06
73	41538209	0.028528324	2.036e-06
73	41586559	0.028578838	2.038e-06
73	41633600	0.028629348	2.036e-06
73	41682104	0.02867986	2.036e-06
73	41731632	0.028730374	2.038e-06
73	41779246	0.028780884	2.036e-06
73	41827571	0.028831396	2.036e-06
73	41877396	0.02888191	2.038e-06
73	41924565	0.02893242	2.036e-06
73	41972101	0.028982932	2.036e-06
73	42021441	0.029033446	2.038e-06
73	42068901	0.029083956	2.036e-06
73	42117790	0.029134468	2.036e-06
73	42165358	0.029184982	2.038e-06
73	42210543	0.029235492	2.036e-06
73	42256041	0.029286004	2.036e-06
73	42304527	0.029336518	2.038e-06
73	42349627	0.029387028	2.036e-06
73	42394752	0.02943754	2.036e-06
73	42442440	0.029488054	2.038e-06
73	42488048	0.029538564	2.036e-06
73	42533428	0.029589076	2.036e-06
73	42580826	0.02963959	2.038e-06
73	42625612	0.0296901	2.036e-06
73	42668843	0.029740612	2.036e-06
73	42716315	0.029791126	2.038e-06
73	42760632	0.029841636	2.036e-06
73	42805043	0.029892148	2.036e-06
73	42852264	0.029942662	2.038e-06
73	42896706	0.029993172	2.036e-06
73	42941462	0.030043684	2.036e-06
73	42988482	0.030094198	2.038e-06
73	43032736	0.030144708	2.036e-06
73	43074832	0.03019522	2.036e-06
73	43118440	0.030245734	2.038e-06
73	43162040	0.030296244	2.036e-06
73	43206184	0.030346756	2.036e-06
73	43251724	0.03039727	2.038e-06
73	43295566	0.03044778	2.036e-06
73	43339499	0.030498292	2.036e-06
73	43385068	0.030548806	2.038e-06
73	43429078	0.030599316	2.036e-06
73	43471509	0.030649828	2.036e-06
73	43517171	0.030700342	2.038e-06
73	43561114	0.030750852	2.036e-06
73	43604652	0.030801364	2.036e-06
73	43651313	0.030851878	2.038e-06
73	43694458	0.030902388	2.036e-06
73	43738054	0.0309529	2.036e-06
73	43784475	0.031003414	2.038e-06
73	43827924	0.031053924	2.036e-06
73	43871601	0.031104436	2.036e-06
74	32245156	0.021055224032	4.712032e-06
74	32328836	0.021106448032	5.424032e-06
74	32403664	0.021154753366	3.217366e-06
74	32481469	0.021205095	3.047e-06
74	32560013	0.021257854713	5.294713e-06
74	32635213	0.021308056713	4.984713e-06
74	32705267	0.021357744713	4.160713e-06
74	32775764	0.021408968713	4.872713e-06
74	32843905	0.021458656713	4.048713e-06
74	32916838	0.021509882713	4.762713e-06
74	32986535	0.021560082713	4.450713e-06
74	33058556	0.021610796713	4.652713e-06
74	33128476	0.021661508713	4.852713e-06
74	33196632	0.021710172713	3.004713e-06
74	33267182	0.021761908713	4.228713e-06
74	33340784	0.021813134713	4.942713e-06
74	33408411	0.021861354505	2.650505e-06
74	33476837	0.021911993959	2.777959e-06
74	33551403	0.021965267959	5.539959e-06
74	33621385	0.022015467959	5.227959e-06
74	33688923	0.022064643959	3.891959e-06
74	33760235	0.022114508	3.244e-06
74	33832114	0.022167268	5.492e-06
74	33903876	0.02221747	5.182e-06
74	33972048	0.022266134	3.334e-06
74	34041896	0.022317358	4.046e-06
74	34113577	0.022368584	4.76e-06
74	34181211	0.022417246	2.91e-06
74	34254024	0.022469496	4.648e-06
74	34325974	0.02252021	4.85e-06
74	34394390	0.022569067232	3.195232e-06
74	34465159	0.022620293232	3.909232e-06
74	34537732	0.022672031232	5.135232e-06
74	34606414	0.022721207232	3.799232e-06
74	34675756	0.022771120528	3.200528e-06
74	34749294	0.022823370528	4.938528e-06
74	34818939	0.022874082528	5.138528e-06
74	34887011	0.022923258528	3.802528e-06
74	34960824	0.022974996528	5.028528e-06
74	35030072	0.023025196528	4.716528e-06
74	35099992	0.023076420528	5.428528e-06
74	35171482	0.023126622528	5.118528e-06
74	35235822	0.023174735805	2.719805e-06
74	35305397	0.023226105657	3.577657e-06
74	35376171	0.023277843657	4.803657e-06
74	35444760	0.023328555657	5.003657e-06
74	35511584	0.023378755657	4.691657e-06
74	35578524	0.023428955657	4.379657e-06
74	35647016	0.023478375	3.287e-06
74	35716814	0.023530111312	4.511312e-06
74	35785042	0.023581337312	5.225312e-06
74	35848589	0.023629620663	2.996663e-06
74	35918373	0.02368032846	3.19246e-06
74	35985815	0.02373206446	4.41646e-06
74	36052157	0.02378277846	4.61846e-06
74	36115612	0.02383144246	2.77046e-06
74	36185346	0.02388420446	5.02046e-06
74	36252341	0.02393440446	4.70846e-06
74	36316277	0.02398306846	2.86046e-06
74	36382559	0.024033298457	2.578457e-06
74	36454130	0.024086572457	5.340457e-06
74	36519779	0.024136772457	5.028457e-06
74	36584909	0.024185436457	3.180457e-06
74	36656280	0.024237686457	4.918457e-06
74	36722608	0.024288398457	5.118457e-06
74	36786445	0.024336458964	2.666964e-06
74	36853622	0.02438691303	2.60903e-06
74	36924979	0.02444018703	5.37103e-06
74	36989917	0.02448987503	4.54703e-06
74	37060059	0.02454110103	5.26103e-06
74	37130403	0.02459335103	6.99903e-06
74	37191390	0.024639414	2.55e-06
74	37257583	0.024689924	2.548e-06
74	37329929	0.024743198	5.31e-06
74	37398290	0.024793912	5.512e-06
74	37464587	0.0248436	4.688e-06
74	37532705	0.024894824	5.4e-06
74	37602520	0.02494605	6.114e-06
74	37665073	0.024993772319	3.324319e-06
74	37735710	0.025046022319	5.062319e-06
74	37803942	0.025096736319	5.264319e-06
74	37869496	0.025145912319	3.928319e-06
74	37936227	0.025197648319	5.152319e-06
74	38003487	0.025249898319	6.890319e-06
74	38062067	0.02529606546	2.54546e-06
74	38128261	0.025346779897	2.747897e-06
74	38197555	0.025400053897	5.509897e-06
74	38262323	0.025451277897	6.221897e-06
74	38323201	0.025497829725	2.261725e-06
74	38392403	0.025551615725	5.535725e-06
74	38457768	0.025601815725	5.223725e-06
74	38520324	0.025650991725	3.887725e-06
74	38586997	0.025702729725	5.113725e-06
74	38655745	0.025756515725	8.387725e-06
74	38711544	0.025800676	2.036e-06
74	38778713	0.02585224506	3.09306e-06
74	38847043	0.02590449506	4.83106e-06
74	38910913	0.02595571906	5.54306e-06
74	38969167	0.026003457345	2.769345e-06
74	39032079	0.02605539885	4.19885e-06
74	39089453	0.02610662285	4.91085e-06
74	39140744	0.02615528685	3.06285e-06
74	39195744	0.026206631361	3.895361e-06
74	39250442	0.026257855361	4.607361e-06
74	39305862	0.026310105361	6.345361e-06
74	39354883	0.026357231361	2.959361e-06
74	39413132	0.026411017361	6.233361e-06
74	39463696	0.026459169361	3.873361e-06
74	39520705	0.026512443361	6.635361e-06
74	39572936	0.026562131361	5.811361e-06
74	39626723	0.026611819361	4.987361e-06
74	39681050	0.026664069361	6.725361e-06
74	39738211	0.026717855361	9.999361e-06
74	39785886	0.026761909361	3.541361e-06
74	39837663	0.026811577671	2.697671e-06
74	39894238	0.026864851671	5.459671e-06
74	39949871	0.026916077671	6.173671e-06
74	39999354	0.026962894989	2.478989e-06
74	40054682	0.027014509717	3.581717e-06
74	40110658	0.027067271717	5.831717e-06
74	40163624	0.027117983717	6.031717e-06
74	40213215	0.027166647717	4.183717e-06
74	40266146	0.027218385717	5.409717e-06
74	40315110	0.027268585717	5.097717e-06
74	40364722	0.027319297717	5.297717e-06
74	40416531	0.027369497717	4.985717e-06
74	40467241	0.027420723717	5.699717e-06
74	40516319	0.027470411717	4.875717e-06
74	40567861	0.027521123717	5.075717e-06
74	40617138	0.027570813717	4.253717e-06
74	40668742	0.027622549717	5.477717e-06
74	40720952	0.027674799717	7.215717e-06
74	40769461	0.027723463717	5.367717e-06
74	40821710	0.027776225717	7.617717e-06
74	40875667	0.027830011717	1.0891717e-05
74	40921139	0.027874577717	4.945717e-06
74	40973527	0.027926827717	6.683717e-06
74	41016869	0.027973460339	2.804339e-06
74	41064656	0.02802402705	2.85905e-06
74	41121234	0.02807935105	7.67105e-06
74	41169150	0.02812801505	5.82305e-06
74	41214153	0.02817565305	2.94905e-06
74	41268989	0.02823046505	7.24905e-06
74	41312804	0.028276258649	2.530649e-06
74	41356548	0.028326788	2.548e-06
74	41402342	0.0283773	2.548e-06
74	41446487	0.028427627307	2.363307e-06
74	41492717	0.028478377419	2.601419e-06
74	41540445	0.028528735454	2.447454e-06
74	41586897	0.028579405187	2.605187e-06
74	41633881	0.028630014956	2.702956e-06
74	41685112	0.028681752956	3.928956e-06
74	41732774	0.028732976956	4.640956e-06
74	41782408	0.028783178956	4.330956e-06
74	41830299	0.028832866956	3.506956e-06
74	41878502	0.028884602956	4.730956e-06
74	41925038	0.028933166046	2.782046e-06
74	41974739	0.02898387918	2.98318e-06
74	42021877	0.029034218832	2.810832e-06
74	42071904	0.029085954832	4.034832e-06
74	42121094	0.029136668832	4.236832e-06
74	42166550	0.029187380832	4.436832e-06
74	42213836	0.029238094832	4.638832e-06
74	42258595	0.029287270832	3.302832e-06
74	42305668	0.029339006832	4.526832e-06
74	42352624	0.029389208832	4.216832e-06
74	42397895	0.029439920832	4.416832e-06
74	42443683	0.029490632832	4.616832e-06
74	42488374	0.029539270544	2.742544e-06
74	42536428	0.029591008544	3.968544e-06
74	42581453	0.029641208544	3.656544e-06
74	42628717	0.029692434544	4.370544e-06
74	42671814	0.029742634544	4.058544e-06
74	42717515	0.029793346544	4.258544e-06
74	42763697	0.029844060544	4.460544e-06
74	42808054	0.029894260544	4.148544e-06
74	42853364	0.029944972544	4.348544e-06
74	42899764	0.029995686544	4.550544e-06
74	42944540	0.030045886544	4.238544e-06
74	42989959	0.030097110544	4.950544e-06
74	43032938	0.03014522	2.548e-06
74	43077157	0.030195885169	2.701169e-06
74	43118587	0.030246231497	2.535497e-06
74	43165173	0.030298481497	4.273497e-06
74	43209206	0.030349193497	4.473497e-06
74	43252753	0.030399905497	4.673497e-06
74	43298514	0.030450107497	4.363497e-06
74	43342079	0.030499795497	3.539497e-06
74	43386350	0.030551531497	4.763497e-06
74	43429221	0.030599757978	2.477978e-06
74	43473783	0.030650394921	2.602921e-06
74	43517564	0.030701253249	2.949249e-06
74	43564062	0.030752989249	4.173249e-06
74	43607780	0.030803703249	4.375249e-06
74	43652333	0.030854415249	4.575249e-06
74	43697493	0.030904615249	4.263249e-06
74	43740658	0.030954305249	3.441249e-06
74	43785662	0.031006041249	4.665249e-06
74	43831067	0.031056243249	4.355249e-06
74	43874868	0.031106955249	4.555249e-06

