file 697619 1590495345                                          
version 2
run General-0-20200526-20:14:12-194716
attr configname General
attr datetime 20200526-20:14:12
attr experiment General
attr inifile examples/evaluation_fattree128/fat-tree.ini
attr iterationvars ""
attr iterationvarsf ""
attr measurement ""
attr network ib_model.examples.evaluation_fattree128.fat_tree_128
attr processid 194716
attr repetition 0
attr replication #0
attr resultdir results
attr runnumber 0
attr seedset 0
param **.servers[0].srcLid 1
param **.servers[1].srcLid 2
param **.servers[2].srcLid 3
param **.servers[3].srcLid 4
param **.servers[4].srcLid 5
param **.servers[5].srcLid 6
param **.servers[6].srcLid 7
param **.servers[7].srcLid 8
param **.servers[8].srcLid 9
param **.servers[9].srcLid 10
param **.servers[10].srcLid 11
param **.servers[11].srcLid 12
param **.servers[12].srcLid 13
param **.servers[13].srcLid 14
param **.servers[14].srcLid 15
param **.servers[15].srcLid 16
param **.servers[16].srcLid 17
param **.servers[17].srcLid 18
param **.servers[18].srcLid 19
param **.servers[19].srcLid 20
param **.servers[20].srcLid 21
param **.servers[21].srcLid 22
param **.servers[22].srcLid 23
param **.servers[23].srcLid 24
param **.servers[24].srcLid 25
param **.servers[25].srcLid 26
param **.servers[26].srcLid 27
param **.servers[27].srcLid 28
param **.servers[28].srcLid 29
param **.servers[29].srcLid 30
param **.servers[30].srcLid 31
param **.servers[31].srcLid 32
param **.servers[32].srcLid 33
param **.servers[33].srcLid 34
param **.servers[34].srcLid 35
param **.servers[35].srcLid 36
param **.servers[36].srcLid 37
param **.servers[37].srcLid 38
param **.servers[38].srcLid 39
param **.servers[39].srcLid 40
param **.servers[40].srcLid 41
param **.servers[41].srcLid 42
param **.servers[42].srcLid 43
param **.servers[43].srcLid 44
param **.servers[44].srcLid 45
param **.servers[45].srcLid 46
param **.servers[46].srcLid 47
param **.servers[47].srcLid 48
param **.servers[48].srcLid 49
param **.servers[49].srcLid 50
param **.servers[50].srcLid 51
param **.servers[51].srcLid 52
param **.servers[52].srcLid 53
param **.servers[53].srcLid 54
param **.servers[54].srcLid 55
param **.servers[55].srcLid 56
param **.servers[56].srcLid 57
param **.servers[57].srcLid 58
param **.servers[58].srcLid 59
param **.servers[59].srcLid 60
param **.servers[60].srcLid 61
param **.servers[61].srcLid 62
param **.servers[62].srcLid 63
param **.servers[63].srcLid 64
param **.servers[64].srcLid 65
param **.servers[65].srcLid 66
param **.servers[66].srcLid 67
param **.servers[67].srcLid 68
param **.servers[68].srcLid 69
param **.servers[69].srcLid 70
param **.servers[70].srcLid 71
param **.servers[71].srcLid 72
param **.servers[72].srcLid 73
param **.servers[73].srcLid 74
param **.servers[74].srcLid 75
param **.servers[75].srcLid 76
param **.servers[76].srcLid 77
param **.servers[77].srcLid 78
param **.servers[78].srcLid 79
param **.servers[79].srcLid 80
param **.servers[80].srcLid 81
param **.servers[81].srcLid 82
param **.servers[82].srcLid 83
param **.servers[83].srcLid 84
param **.servers[84].srcLid 85
param **.servers[85].srcLid 86
param **.servers[86].srcLid 87
param **.servers[87].srcLid 88
param **.servers[88].srcLid 89
param **.servers[89].srcLid 90
param **.servers[90].srcLid 91
param **.servers[91].srcLid 92
param **.servers[92].srcLid 93
param **.servers[93].srcLid 94
param **.servers[94].srcLid 95
param **.servers[95].srcLid 96
param **.servers[96].srcLid 97
param **.servers[97].srcLid 98
param **.servers[98].srcLid 99
param **.servers[99].srcLid 100
param **.servers[100].srcLid 101
param **.servers[101].srcLid 102
param **.servers[102].srcLid 103
param **.servers[103].srcLid 104
param **.servers[104].srcLid 105
param **.servers[105].srcLid 106
param **.servers[106].srcLid 107
param **.servers[107].srcLid 108
param **.servers[108].srcLid 109
param **.servers[109].srcLid 110
param **.servers[110].srcLid 111
param **.servers[111].srcLid 112
param **.servers[112].srcLid 113
param **.servers[113].srcLid 114
param **.servers[114].srcLid 115
param **.servers[115].srcLid 116
param **.servers[116].srcLid 117
param **.servers[117].srcLid 118
param **.servers[118].srcLid 119
param **.servers[119].srcLid 120
param **.servers[120].srcLid 121
param **.servers[121].srcLid 122
param **.servers[122].srcLid 123
param **.servers[123].srcLid 124
param **.servers[124].srcLid 125
param **.servers[125].srcLid 126
param **.servers[126].srcLid 127
param **.servers[127].srcLid 128
param **.flitSize 2048B
param **.width 4
param **.speed 10Gbps
param **.maxVL 1
param **.sink.hiccupDuration 0.001us
param **.sink.hiccupDelay 10000us
param **.sink.repFirstPackets 0
param **.obuf.credMinTime 4.096us
param **H_**.obuf.size 5
param **.ibuf.lossyMode false
param **.ISWDelay 50ns
param **.VSWDelay 50ns
param **SW**.vlarb.coreFreq 1200MHz
param **H_**.vlarb.coreFreq 1000MHz
param **SW**.vlarb.busWidth 24B
param **H_**.vlarb.busWidth 16B
param **.vlarb.vlHighLimit 16
param **.vlarb.highVLArbEntries "\"0:1 1:20 2:40 3:80\""
param **.vlarb.lowVLArbEntries "\"0:1 1:20 2:40 3:80\""
param **.vlarb.useFCFSRQArb false
param **.pktfwd.AdaptMode "\"none\""
param **.pktfwd.LIDBindTime 2us
param **.pktfwd.TQBusy1Thd 20
param **.pktfwd.TQBusy2Thd 40
param **.pktfwd.TQBusy3Thd 80
param **.pktfwd.ARAdaptThd 4
param **.pktfwd.OPSelAlgo "\"greedy\""
param **.pktfwd.GreedyRandSize 3
param **.pktfwd.statRepTime 10us
param **.pktfwd.OPSelOffsetByDLID 0
param **.L1_switches[0]**.fdbIndex 0
param **.L1_switches[1]**.fdbIndex 1
param **.L1_switches[2]**.fdbIndex 2
param **.L1_switches[3]**.fdbIndex 3
param **.L1_switches[4]**.fdbIndex 4
param **.L1_switches[5]**.fdbIndex 5
param **.L1_switches[6]**.fdbIndex 6
param **.L1_switches[7]**.fdbIndex 7
param **.L1_switches[8]**.fdbIndex 8
param **.L1_switches[9]**.fdbIndex 9
param **.L1_switches[10]**.fdbIndex 10
param **.L1_switches[11]**.fdbIndex 11
param **.L1_switches[12]**.fdbIndex 12
param **.L1_switches[13]**.fdbIndex 13
param **.L1_switches[14]**.fdbIndex 14
param **.L1_switches[15]**.fdbIndex 15
param **.L1_switches[16]**.fdbIndex 16
param **.L1_switches[17]**.fdbIndex 17
param **.L1_switches[18]**.fdbIndex 18
param **.L1_switches[19]**.fdbIndex 19
param **.L1_switches[20]**.fdbIndex 20
param **.L1_switches[21]**.fdbIndex 21
param **.L1_switches[22]**.fdbIndex 22
param **.L1_switches[23]**.fdbIndex 23
param **.L1_switches[24]**.fdbIndex 24
param **.L1_switches[25]**.fdbIndex 25
param **.L1_switches[26]**.fdbIndex 26
param **.L1_switches[27]**.fdbIndex 27
param **.L1_switches[28]**.fdbIndex 28
param **.L1_switches[29]**.fdbIndex 29
param **.L1_switches[30]**.fdbIndex 30
param **.L1_switches[31]**.fdbIndex 31
param **.L2_switches[0]**.fdbIndex 32
param **.L2_switches[1]**.fdbIndex 33
param **.L2_switches[2]**.fdbIndex 34
param **.L2_switches[3]**.fdbIndex 35
param **.L2_switches[4]**.fdbIndex 36
param **.L2_switches[5]**.fdbIndex 37
param **.L2_switches[6]**.fdbIndex 38
param **.L2_switches[7]**.fdbIndex 39
param **.L2_switches[8]**.fdbIndex 40
param **.L2_switches[9]**.fdbIndex 41
param **.L2_switches[10]**.fdbIndex 42
param **.L2_switches[11]**.fdbIndex 43
param **.L2_switches[12]**.fdbIndex 44
param **.L2_switches[13]**.fdbIndex 45
param **.L2_switches[14]**.fdbIndex 46
param **.L2_switches[15]**.fdbIndex 47
param **.L2_switches[16]**.fdbIndex 48
param **.L2_switches[17]**.fdbIndex 49
param **.L2_switches[18]**.fdbIndex 50
param **.L2_switches[19]**.fdbIndex 51
param **.L2_switches[20]**.fdbIndex 52
param **.L2_switches[21]**.fdbIndex 53
param **.L2_switches[22]**.fdbIndex 54
param **.L2_switches[23]**.fdbIndex 55
param **.L2_switches[24]**.fdbIndex 56
param **.L2_switches[25]**.fdbIndex 57
param **.L2_switches[26]**.fdbIndex 58
param **.L2_switches[27]**.fdbIndex 59
param **.L2_switches[28]**.fdbIndex 60
param **.L2_switches[29]**.fdbIndex 61
param **.L2_switches[30]**.fdbIndex 62
param **.L2_switches[31]**.fdbIndex 63
param **.L3_switches[0]**.fdbIndex 64
param **.L3_switches[1]**.fdbIndex 65
param **.L3_switches[2]**.fdbIndex 66
param **.L3_switches[3]**.fdbIndex 67
param **.L3_switches[4]**.fdbIndex 68
param **.L3_switches[5]**.fdbIndex 69
param **.L3_switches[6]**.fdbIndex 70
param **.L3_switches[7]**.fdbIndex 71
param **.L3_switches[8]**.fdbIndex 72
param **.L3_switches[9]**.fdbIndex 73
param **.L3_switches[10]**.fdbIndex 74
param **.L3_switches[11]**.fdbIndex 75
param **.L3_switches[12]**.fdbIndex 76
param **.L3_switches[13]**.fdbIndex 77
param **.L3_switches[14]**.fdbIndex 78
param **.L3_switches[15]**.fdbIndex 79
param **.servers[97]**.dstLid 117
param **.servers[97].app.msgLength 4194304B
param **.servers[97].app.msg2msgGap 1ns
param **.servers[97].app.msgNum 5
param **.servers[97].**.on_average_throughput 1
param **.servers[97]**.startTime 0.005000
param **.servers[97]**.endTime 0.025000
param **.servers[116]**.on_utilization 1
param **.servers[61]**.dstLid 105
param **.servers[61].app.msgLength 4194304B
param **.servers[61].app.msg2msgGap 1ns
param **.servers[61].app.msgNum 5
param **.servers[61].**.on_average_throughput 1
param **.servers[61]**.startTime 0.005000
param **.servers[61]**.endTime 0.025000
param **.servers[104]**.on_utilization 1
param **.servers[91]**.dstLid 40
param **.servers[91].app.msgLength 4194304B
param **.servers[91].app.msg2msgGap 1ns
param **.servers[91].app.msgNum 5
param **.servers[91].**.on_average_throughput 1
param **.servers[91]**.startTime 0.005000
param **.servers[91]**.endTime 0.025000
param **.servers[39]**.on_utilization 1
param **.servers[1]**.dstLid 27
param **.servers[1].app.msgLength 4194304B
param **.servers[1].app.msg2msgGap 1ns
param **.servers[1].app.msgNum 5
param **.servers[1].**.on_average_throughput 1
param **.servers[1]**.startTime 0.005000
param **.servers[1]**.endTime 0.025000
param **.servers[26]**.on_utilization 1
param **.servers[115]**.dstLid 27
param **.servers[115].app.msgLength 4194304B
param **.servers[115].app.msg2msgGap 1ns
param **.servers[115].app.msgNum 5
param **.servers[115].**.on_average_throughput 1
param **.servers[115]**.startTime 0.005000
param **.servers[115]**.endTime 0.025000
param **.servers[26]**.on_utilization 1
param **.servers[114]**.dstLid 40
param **.servers[114].app.msgLength 4194304B
param **.servers[114].app.msg2msgGap 1ns
param **.servers[114].app.msgNum 5
param **.servers[114].**.on_average_throughput 1
param **.servers[114]**.startTime 0.005000
param **.servers[114]**.endTime 0.025000
param **.servers[39]**.on_utilization 1
param **.servers[75]**.dstLid 71
param **.servers[75].app.msgLength 4194304B
param **.servers[75].app.msg2msgGap 1ns
param **.servers[75].app.msgNum 5
param **.servers[75].**.on_average_throughput 1
param **.servers[75]**.startTime 0.005000
param **.servers[75]**.endTime 0.025000
param **.servers[70]**.on_utilization 1
param **.servers[3]**.dstLid 16
param **.servers[3].app.msgLength 4194304B
param **.servers[3].app.msg2msgGap 1ns
param **.servers[3].app.msgNum 5
param **.servers[3].**.on_average_throughput 1
param **.servers[3]**.startTime 0.005000
param **.servers[3]**.endTime 0.025000
param **.servers[15]**.on_utilization 1
param **.servers[85]**.dstLid 117
param **.servers[85].app.msgLength 4194304B
param **.servers[85].app.msg2msgGap 1ns
param **.servers[85].app.msgNum 5
param **.servers[85].**.on_average_throughput 1
param **.servers[85]**.startTime 0.005000
param **.servers[85]**.endTime 0.025000
param **.servers[116]**.on_utilization 1
param **.servers[25]**.dstLid 90
param **.servers[25].app.msgLength 4194304B
param **.servers[25].app.msg2msgGap 1ns
param **.servers[25].app.msgNum 5
param **.servers[25].**.on_average_throughput 1
param **.servers[25]**.startTime 0.005000
param **.servers[25]**.endTime 0.025000
param **.servers[89]**.on_utilization 1
param **.servers[42]**.dstLid 105
param **.servers[42].app.msgLength 4194304B
param **.servers[42].app.msg2msgGap 1ns
param **.servers[42].app.msgNum 5
param **.servers[42].**.on_average_throughput 1
param **.servers[42]**.startTime 0.005000
param **.servers[42]**.endTime 0.025000
param **.servers[104]**.on_utilization 1
param **.servers[31]**.dstLid 40
param **.servers[31].app.msgLength 4194304B
param **.servers[31].app.msg2msgGap 1ns
param **.servers[31].app.msgNum 5
param **.servers[31].**.on_average_throughput 1
param **.servers[31]**.startTime 0.005000
param **.servers[31]**.endTime 0.025000
param **.servers[39]**.on_utilization 1
param **.servers[53]**.dstLid 117
param **.servers[53].app.msgLength 4194304B
param **.servers[53].app.msg2msgGap 1ns
param **.servers[53].app.msgNum 5
param **.servers[53].**.on_average_throughput 1
param **.servers[53]**.startTime 0.005000
param **.servers[53]**.endTime 0.025000
param **.servers[116]**.on_utilization 1
param **.servers[33]**.dstLid 63
param **.servers[33].app.msgLength 4194304B
param **.servers[33].app.msg2msgGap 1ns
param **.servers[33].app.msgNum 5
param **.servers[33].**.on_average_throughput 1
param **.servers[33]**.startTime 0.005000
param **.servers[33]**.endTime 0.025000
param **.servers[62]**.on_utilization 1
param **.servers[67]**.dstLid 16
param **.servers[67].app.msgLength 4194304B
param **.servers[67].app.msg2msgGap 1ns
param **.servers[67].app.msgNum 5
param **.servers[67].**.on_average_throughput 1
param **.servers[67]**.startTime 0.005000
param **.servers[67]**.endTime 0.025000
param **.servers[15]**.on_utilization 1
param **.servers[11]**.dstLid 71
param **.servers[11].app.msgLength 4194304B
param **.servers[11].app.msg2msgGap 1ns
param **.servers[11].app.msgNum 5
param **.servers[11].**.on_average_throughput 1
param **.servers[11]**.startTime 0.005000
param **.servers[11]**.endTime 0.025000
param **.servers[70]**.on_utilization 1
param **.servers[69]**.dstLid 40
param **.servers[69].app.msgLength 4194304B
param **.servers[69].app.msg2msgGap 1ns
param **.servers[69].app.msgNum 5
param **.servers[69].**.on_average_throughput 1
param **.servers[69]**.startTime 0.005000
param **.servers[69]**.endTime 0.025000
param **.servers[39]**.on_utilization 1
param **.servers[105]**.dstLid 117
param **.servers[105].app.msgLength 4194304B
param **.servers[105].app.msg2msgGap 1ns
param **.servers[105].app.msgNum 5
param **.servers[105].**.on_average_throughput 1
param **.servers[105]**.startTime 0.005000
param **.servers[105]**.endTime 0.025000
param **.servers[116]**.on_utilization 1
param **.servers[40]**.dstLid 40
param **.servers[40].app.msgLength 4194304B
param **.servers[40].app.msg2msgGap 1ns
param **.servers[40].app.msgNum 5
param **.servers[40].**.on_average_throughput 1
param **.servers[40]**.startTime 0.005000
param **.servers[40]**.endTime 0.025000
param **.servers[39]**.on_utilization 1
param **.servers[10]**.dstLid 105
param **.servers[10].app.msgLength 4194304B
param **.servers[10].app.msg2msgGap 1ns
param **.servers[10].app.msgNum 5
param **.servers[10].**.on_average_throughput 1
param **.servers[10]**.startTime 0.005000
param **.servers[10]**.endTime 0.025000
param **.servers[104]**.on_utilization 1
param **.servers[120]**.dstLid 27
param **.servers[120].app.msgLength 4194304B
param **.servers[120].app.msg2msgGap 1ns
param **.servers[120].app.msgNum 5
param **.servers[120].**.on_average_throughput 1
param **.servers[120]**.startTime 0.005000
param **.servers[120]**.endTime 0.025000
param **.servers[26]**.on_utilization 1
param **.servers[16]**.dstLid 40
param **.servers[16].app.msgLength 4194304B
param **.servers[16].app.msg2msgGap 1ns
param **.servers[16].app.msgNum 5
param **.servers[16].**.on_average_throughput 1
param **.servers[16]**.startTime 0.005000
param **.servers[16]**.endTime 0.025000
param **.servers[39]**.on_utilization 1
param **.servers[123]**.dstLid 27
param **.servers[123].app.msgLength 4194304B
param **.servers[123].app.msg2msgGap 1ns
param **.servers[123].app.msgNum 5
param **.servers[123].**.on_average_throughput 1
param **.servers[123]**.startTime 0.005000
param **.servers[123]**.endTime 0.025000
param **.servers[26]**.on_utilization 1
param **.servers[56]**.dstLid 27
param **.servers[56].app.msgLength 4194304B
param **.servers[56].app.msg2msgGap 1ns
param **.servers[56].app.msgNum 5
param **.servers[56].**.on_average_throughput 1
param **.servers[56]**.startTime 0.005000
param **.servers[56]**.endTime 0.025000
param **.servers[26]**.on_utilization 1
param **.servers[0]**.dstLid 49
param **.servers[0].app.msgLength 4096B
param **.servers[0].app.msg2msgGap 50000ns
param **.servers[0].app.msgNum 200
param **.servers[0]**.startTime 0.015000
param **.servers[0]**.endTime 0.016000
param **.servers[2]**.dstLid 95
param **.servers[2].app.msgLength 4096B
param **.servers[2].app.msg2msgGap 50000ns
param **.servers[2].app.msgNum 200
param **.servers[2]**.startTime 0.007000
param **.servers[2]**.endTime 0.008000
param **.servers[4]**.dstLid 118
param **.servers[4].app.msgLength 4096B
param **.servers[4].app.msg2msgGap 50000ns
param **.servers[4].app.msgNum 200
param **.servers[4]**.startTime 0.017000
param **.servers[4]**.endTime 0.018000
param **.servers[5]**.dstLid 6
param **.servers[5].app.msgLength 4096B
param **.servers[5].app.msg2msgGap 50000ns
param **.servers[5].app.msgNum 200
param **.servers[5]**.startTime 0.011000
param **.servers[5]**.endTime 0.012000
param **.servers[6]**.dstLid 56
param **.servers[6].app.msgLength 4096B
param **.servers[6].app.msg2msgGap 50000ns
param **.servers[6].app.msgNum 200
param **.servers[6]**.startTime 0.007000
param **.servers[6]**.endTime 0.008000
param **.servers[7]**.dstLid 48
param **.servers[7].app.msgLength 4096B
param **.servers[7].app.msg2msgGap 50000ns
param **.servers[7].app.msgNum 200
param **.servers[7]**.startTime 0.013000
param **.servers[7]**.endTime 0.014000
param **.servers[8]**.dstLid 112
param **.servers[8].app.msgLength 4096B
param **.servers[8].app.msg2msgGap 50000ns
param **.servers[8].app.msgNum 200
param **.servers[8]**.startTime 0.017000
param **.servers[8]**.endTime 0.018000
param **.servers[9]**.dstLid 84
param **.servers[9].app.msgLength 4096B
param **.servers[9].app.msg2msgGap 50000ns
param **.servers[9].app.msgNum 200
param **.servers[9]**.startTime 0.015000
param **.servers[9]**.endTime 0.016000
param **.servers[12]**.dstLid 60
param **.servers[12].app.msgLength 4096B
param **.servers[12].app.msg2msgGap 50000ns
param **.servers[12].app.msgNum 200
param **.servers[12]**.startTime 0.009000
param **.servers[12]**.endTime 0.010000
param **.servers[13]**.dstLid 79
param **.servers[13].app.msgLength 4096B
param **.servers[13].app.msg2msgGap 50000ns
param **.servers[13].app.msgNum 200
param **.servers[13]**.startTime 0.017000
param **.servers[13]**.endTime 0.018000
param **.servers[14]**.dstLid 93
param **.servers[14].app.msgLength 4096B
param **.servers[14].app.msg2msgGap 50000ns
param **.servers[14].app.msgNum 200
param **.servers[14]**.startTime 0.019000
param **.servers[14]**.endTime 0.020000
param **.servers[17]**.dstLid 38
param **.servers[17].app.msgLength 4096B
param **.servers[17].app.msg2msgGap 50000ns
param **.servers[17].app.msgNum 200
param **.servers[17]**.startTime 0.017000
param **.servers[17]**.endTime 0.018000
param **.servers[18]**.dstLid 112
param **.servers[18].app.msgLength 4096B
param **.servers[18].app.msg2msgGap 50000ns
param **.servers[18].app.msgNum 200
param **.servers[18]**.startTime 0.007000
param **.servers[18]**.endTime 0.008000
param **.servers[19]**.dstLid 110
param **.servers[19].app.msgLength 4096B
param **.servers[19].app.msg2msgGap 50000ns
param **.servers[19].app.msgNum 200
param **.servers[19]**.startTime 0.009000
param **.servers[19]**.endTime 0.010000
param **.servers[20]**.dstLid 20
param **.servers[20].app.msgLength 4096B
param **.servers[20].app.msg2msgGap 50000ns
param **.servers[20].app.msgNum 200
param **.servers[20]**.startTime 0.007000
param **.servers[20]**.endTime 0.008000
param **.servers[21]**.dstLid 102
param **.servers[21].app.msgLength 4096B
param **.servers[21].app.msg2msgGap 50000ns
param **.servers[21].app.msgNum 200
param **.servers[21]**.startTime 0.011000
param **.servers[21]**.endTime 0.012000
param **.servers[22]**.dstLid 85
param **.servers[22].app.msgLength 4096B
param **.servers[22].app.msg2msgGap 50000ns
param **.servers[22].app.msgNum 200
param **.servers[22]**.startTime 0.009000
param **.servers[22]**.endTime 0.010000
param **.servers[23]**.dstLid 118
param **.servers[23].app.msgLength 4096B
param **.servers[23].app.msg2msgGap 50000ns
param **.servers[23].app.msgNum 200
param **.servers[23]**.startTime 0.017000
param **.servers[23]**.endTime 0.018000
param **.servers[24]**.dstLid 97
param **.servers[24].app.msgLength 4096B
param **.servers[24].app.msg2msgGap 50000ns
param **.servers[24].app.msgNum 200
param **.servers[24]**.startTime 0.009000
param **.servers[24]**.endTime 0.010000
param **.servers[27]**.dstLid 9
param **.servers[27].app.msgLength 4096B
param **.servers[27].app.msg2msgGap 50000ns
param **.servers[27].app.msgNum 200
param **.servers[27]**.startTime 0.019000
param **.servers[27]**.endTime 0.020000
param **.servers[28]**.dstLid 14
param **.servers[28].app.msgLength 4096B
param **.servers[28].app.msg2msgGap 50000ns
param **.servers[28].app.msgNum 200
param **.servers[28]**.startTime 0.015000
param **.servers[28]**.endTime 0.016000
param **.servers[29]**.dstLid 128
param **.servers[29].app.msgLength 4096B
param **.servers[29].app.msg2msgGap 50000ns
param **.servers[29].app.msgNum 200
param **.servers[29]**.startTime 0.011000
param **.servers[29]**.endTime 0.012000
param **.servers[30]**.dstLid 87
param **.servers[30].app.msgLength 4096B
param **.servers[30].app.msg2msgGap 50000ns
param **.servers[30].app.msgNum 200
param **.servers[30]**.startTime 0.009000
param **.servers[30]**.endTime 0.010000
param **.servers[32]**.dstLid 69
param **.servers[32].app.msgLength 4096B
param **.servers[32].app.msg2msgGap 50000ns
param **.servers[32].app.msgNum 200
param **.servers[32]**.startTime 0.021000
param **.servers[32]**.endTime 0.022000
param **.servers[34]**.dstLid 69
param **.servers[34].app.msgLength 4096B
param **.servers[34].app.msg2msgGap 50000ns
param **.servers[34].app.msgNum 200
param **.servers[34]**.startTime 0.017000
param **.servers[34]**.endTime 0.018000
param **.servers[35]**.dstLid 99
param **.servers[35].app.msgLength 4096B
param **.servers[35].app.msg2msgGap 50000ns
param **.servers[35].app.msgNum 200
param **.servers[35]**.startTime 0.013000
param **.servers[35]**.endTime 0.014000
param **.servers[36]**.dstLid 51
param **.servers[36].app.msgLength 4096B
param **.servers[36].app.msg2msgGap 50000ns
param **.servers[36].app.msgNum 200
param **.servers[36]**.startTime 0.011000
param **.servers[36]**.endTime 0.012000
param **.servers[37]**.dstLid 73
param **.servers[37].app.msgLength 4096B
param **.servers[37].app.msg2msgGap 50000ns
param **.servers[37].app.msgNum 200
param **.servers[37]**.startTime 0.013000
param **.servers[37]**.endTime 0.014000
param **.servers[38]**.dstLid 74
param **.servers[38].app.msgLength 4096B
param **.servers[38].app.msg2msgGap 50000ns
param **.servers[38].app.msgNum 200
param **.servers[38]**.startTime 0.015000
param **.servers[38]**.endTime 0.016000
param **.servers[41]**.dstLid 45
param **.servers[41].app.msgLength 4096B
param **.servers[41].app.msg2msgGap 50000ns
param **.servers[41].app.msgNum 200
param **.servers[41]**.startTime 0.013000
param **.servers[41]**.endTime 0.014000
param **.servers[43]**.dstLid 8
param **.servers[43].app.msgLength 4096B
param **.servers[43].app.msg2msgGap 50000ns
param **.servers[43].app.msgNum 200
param **.servers[43]**.startTime 0.011000
param **.servers[43]**.endTime 0.012000
param **.servers[44]**.dstLid 9
param **.servers[44].app.msgLength 4096B
param **.servers[44].app.msg2msgGap 50000ns
param **.servers[44].app.msgNum 200
param **.servers[44]**.startTime 0.009000
param **.servers[44]**.endTime 0.010000
param **.servers[45]**.dstLid 58
param **.servers[45].app.msgLength 4096B
param **.servers[45].app.msg2msgGap 50000ns
param **.servers[45].app.msgNum 200
param **.servers[45]**.startTime 0.015000
param **.servers[45]**.endTime 0.016000
param **.servers[46]**.dstLid 82
param **.servers[46].app.msgLength 4096B
param **.servers[46].app.msg2msgGap 50000ns
param **.servers[46].app.msgNum 200
param **.servers[46]**.startTime 0.011000
param **.servers[46]**.endTime 0.012000
param **.servers[47]**.dstLid 89
param **.servers[47].app.msgLength 4096B
param **.servers[47].app.msg2msgGap 50000ns
param **.servers[47].app.msgNum 200
param **.servers[47]**.startTime 0.011000
param **.servers[47]**.endTime 0.012000
param **.servers[48]**.dstLid 65
param **.servers[48].app.msgLength 4096B
param **.servers[48].app.msg2msgGap 50000ns
param **.servers[48].app.msgNum 200
param **.servers[48]**.startTime 0.007000
param **.servers[48]**.endTime 0.008000
param **.servers[49]**.dstLid 81
param **.servers[49].app.msgLength 4096B
param **.servers[49].app.msg2msgGap 50000ns
param **.servers[49].app.msgNum 200
param **.servers[49]**.startTime 0.015000
param **.servers[49]**.endTime 0.016000
param **.servers[50]**.dstLid 30
param **.servers[50].app.msgLength 4096B
param **.servers[50].app.msg2msgGap 50000ns
param **.servers[50].app.msgNum 200
param **.servers[50]**.startTime 0.019000
param **.servers[50]**.endTime 0.020000
param **.servers[51]**.dstLid 6
param **.servers[51].app.msgLength 4096B
param **.servers[51].app.msg2msgGap 50000ns
param **.servers[51].app.msgNum 200
param **.servers[51]**.startTime 0.017000
param **.servers[51]**.endTime 0.018000
param **.servers[52]**.dstLid 55
param **.servers[52].app.msgLength 4096B
param **.servers[52].app.msg2msgGap 50000ns
param **.servers[52].app.msgNum 200
param **.servers[52]**.startTime 0.007000
param **.servers[52]**.endTime 0.008000
param **.servers[54]**.dstLid 119
param **.servers[54].app.msgLength 4096B
param **.servers[54].app.msg2msgGap 50000ns
param **.servers[54].app.msgNum 200
param **.servers[54]**.startTime 0.019000
param **.servers[54]**.endTime 0.020000
param **.servers[55]**.dstLid 128
param **.servers[55].app.msgLength 4096B
param **.servers[55].app.msg2msgGap 50000ns
param **.servers[55].app.msgNum 200
param **.servers[55]**.startTime 0.017000
param **.servers[55]**.endTime 0.018000
param **.servers[57]**.dstLid 39
param **.servers[57].app.msgLength 4096B
param **.servers[57].app.msg2msgGap 50000ns
param **.servers[57].app.msgNum 200
param **.servers[57]**.startTime 0.009000
param **.servers[57]**.endTime 0.010000
param **.servers[58]**.dstLid 36
param **.servers[58].app.msgLength 4096B
param **.servers[58].app.msg2msgGap 50000ns
param **.servers[58].app.msgNum 200
param **.servers[58]**.startTime 0.015000
param **.servers[58]**.endTime 0.016000
param **.servers[59]**.dstLid 65
param **.servers[59].app.msgLength 4096B
param **.servers[59].app.msg2msgGap 50000ns
param **.servers[59].app.msgNum 200
param **.servers[59]**.startTime 0.019000
param **.servers[59]**.endTime 0.020000
param **.servers[60]**.dstLid 112
param **.servers[60].app.msgLength 4096B
param **.servers[60].app.msg2msgGap 50000ns
param **.servers[60].app.msgNum 200
param **.servers[60]**.startTime 0.015000
param **.servers[60]**.endTime 0.016000
param **.servers[63]**.dstLid 94
param **.servers[63].app.msgLength 4096B
param **.servers[63].app.msg2msgGap 50000ns
param **.servers[63].app.msgNum 200
param **.servers[63]**.startTime 0.021000
param **.servers[63]**.endTime 0.022000
param **.servers[64]**.dstLid 77
param **.servers[64].app.msgLength 4096B
param **.servers[64].app.msg2msgGap 50000ns
param **.servers[64].app.msgNum 200
param **.servers[64]**.startTime 0.011000
param **.servers[64]**.endTime 0.012000
param **.servers[65]**.dstLid 22
param **.servers[65].app.msgLength 4096B
param **.servers[65].app.msg2msgGap 50000ns
param **.servers[65].app.msgNum 200
param **.servers[65]**.startTime 0.009000
param **.servers[65]**.endTime 0.010000
param **.servers[66]**.dstLid 5
param **.servers[66].app.msgLength 4096B
param **.servers[66].app.msg2msgGap 50000ns
param **.servers[66].app.msgNum 200
param **.servers[66]**.startTime 0.015000
param **.servers[66]**.endTime 0.016000
param **.servers[68]**.dstLid 104
param **.servers[68].app.msgLength 4096B
param **.servers[68].app.msg2msgGap 50000ns
param **.servers[68].app.msgNum 200
param **.servers[68]**.startTime 0.011000
param **.servers[68]**.endTime 0.012000
param **.servers[71]**.dstLid 73
param **.servers[71].app.msgLength 4096B
param **.servers[71].app.msg2msgGap 50000ns
param **.servers[71].app.msgNum 200
param **.servers[71]**.startTime 0.011000
param **.servers[71]**.endTime 0.012000
param **.servers[72]**.dstLid 96
param **.servers[72].app.msgLength 4096B
param **.servers[72].app.msg2msgGap 50000ns
param **.servers[72].app.msgNum 200
param **.servers[72]**.startTime 0.011000
param **.servers[72]**.endTime 0.012000
param **.servers[73]**.dstLid 78
param **.servers[73].app.msgLength 4096B
param **.servers[73].app.msg2msgGap 50000ns
param **.servers[73].app.msgNum 200
param **.servers[73]**.startTime 0.011000
param **.servers[73]**.endTime 0.012000
param **.servers[74]**.dstLid 101
param **.servers[74].app.msgLength 4096B
param **.servers[74].app.msg2msgGap 50000ns
param **.servers[74].app.msgNum 200
param **.servers[74]**.startTime 0.013000
param **.servers[74]**.endTime 0.014000
param **.servers[76]**.dstLid 114
param **.servers[76].app.msgLength 4096B
param **.servers[76].app.msg2msgGap 50000ns
param **.servers[76].app.msgNum 200
param **.servers[76]**.startTime 0.013000
param **.servers[76]**.endTime 0.014000
param **.servers[77]**.dstLid 78
param **.servers[77].app.msgLength 4096B
param **.servers[77].app.msg2msgGap 50000ns
param **.servers[77].app.msgNum 200
param **.servers[77]**.startTime 0.017000
param **.servers[77]**.endTime 0.018000
param **.servers[78]**.dstLid 81
param **.servers[78].app.msgLength 4096B
param **.servers[78].app.msg2msgGap 50000ns
param **.servers[78].app.msgNum 200
param **.servers[78]**.startTime 0.019000
param **.servers[78]**.endTime 0.020000
param **.servers[79]**.dstLid 83
param **.servers[79].app.msgLength 4096B
param **.servers[79].app.msg2msgGap 50000ns
param **.servers[79].app.msgNum 200
param **.servers[79]**.startTime 0.015000
param **.servers[79]**.endTime 0.016000
param **.servers[80]**.dstLid 120
param **.servers[80].app.msgLength 4096B
param **.servers[80].app.msg2msgGap 50000ns
param **.servers[80].app.msgNum 200
param **.servers[80]**.startTime 0.021000
param **.servers[80]**.endTime 0.022000
param **.servers[81]**.dstLid 56
param **.servers[81].app.msgLength 4096B
param **.servers[81].app.msg2msgGap 50000ns
param **.servers[81].app.msgNum 200
param **.servers[81]**.startTime 0.009000
param **.servers[81]**.endTime 0.010000
param **.servers[82]**.dstLid 119
param **.servers[82].app.msgLength 4096B
param **.servers[82].app.msg2msgGap 50000ns
param **.servers[82].app.msgNum 200
param **.servers[82]**.startTime 0.007000
param **.servers[82]**.endTime 0.008000
param **.servers[83]**.dstLid 25
param **.servers[83].app.msgLength 4096B
param **.servers[83].app.msg2msgGap 50000ns
param **.servers[83].app.msgNum 200
param **.servers[83]**.startTime 0.017000
param **.servers[83]**.endTime 0.018000
param **.servers[84]**.dstLid 9
param **.servers[84].app.msgLength 4096B
param **.servers[84].app.msg2msgGap 50000ns
param **.servers[84].app.msgNum 200
param **.servers[84]**.startTime 0.009000
param **.servers[84]**.endTime 0.010000
param **.servers[86]**.dstLid 110
param **.servers[86].app.msgLength 4096B
param **.servers[86].app.msg2msgGap 50000ns
param **.servers[86].app.msgNum 200
param **.servers[86]**.startTime 0.017000
param **.servers[86]**.endTime 0.018000
param **.servers[87]**.dstLid 89
param **.servers[87].app.msgLength 4096B
param **.servers[87].app.msg2msgGap 50000ns
param **.servers[87].app.msgNum 200
param **.servers[87]**.startTime 0.011000
param **.servers[87]**.endTime 0.012000
param **.servers[88]**.dstLid 10
param **.servers[88].app.msgLength 4096B
param **.servers[88].app.msg2msgGap 50000ns
param **.servers[88].app.msgNum 200
param **.servers[88]**.startTime 0.021000
param **.servers[88]**.endTime 0.022000
param **.servers[90]**.dstLid 30
param **.servers[90].app.msgLength 4096B
param **.servers[90].app.msg2msgGap 50000ns
param **.servers[90].app.msgNum 200
param **.servers[90]**.startTime 0.007000
param **.servers[90]**.endTime 0.008000
param **.servers[92]**.dstLid 44
param **.servers[92].app.msgLength 4096B
param **.servers[92].app.msg2msgGap 50000ns
param **.servers[92].app.msgNum 200
param **.servers[92]**.startTime 0.013000
param **.servers[92]**.endTime 0.014000
param **.servers[93]**.dstLid 126
param **.servers[93].app.msgLength 4096B
param **.servers[93].app.msg2msgGap 50000ns
param **.servers[93].app.msgNum 200
param **.servers[93]**.startTime 0.021000
param **.servers[93]**.endTime 0.022000
param **.servers[94]**.dstLid 91
param **.servers[94].app.msgLength 4096B
param **.servers[94].app.msg2msgGap 50000ns
param **.servers[94].app.msgNum 200
param **.servers[94]**.startTime 0.013000
param **.servers[94]**.endTime 0.014000
param **.servers[95]**.dstLid 10
param **.servers[95].app.msgLength 4096B
param **.servers[95].app.msg2msgGap 50000ns
param **.servers[95].app.msgNum 200
param **.servers[95]**.startTime 0.019000
param **.servers[95]**.endTime 0.020000
param **.servers[96]**.dstLid 29
param **.servers[96].app.msgLength 4096B
param **.servers[96].app.msg2msgGap 50000ns
param **.servers[96].app.msgNum 200
param **.servers[96]**.startTime 0.017000
param **.servers[96]**.endTime 0.018000
param **.servers[98]**.dstLid 127
param **.servers[98].app.msgLength 4096B
param **.servers[98].app.msg2msgGap 50000ns
param **.servers[98].app.msgNum 200
param **.servers[98]**.startTime 0.007000
param **.servers[98]**.endTime 0.008000
param **.servers[99]**.dstLid 53
param **.servers[99].app.msgLength 4096B
param **.servers[99].app.msg2msgGap 50000ns
param **.servers[99].app.msgNum 200
param **.servers[99]**.startTime 0.019000
param **.servers[99]**.endTime 0.020000
param **.servers[100]**.dstLid 47
param **.servers[100].app.msgLength 4096B
param **.servers[100].app.msg2msgGap 50000ns
param **.servers[100].app.msgNum 200
param **.servers[100]**.startTime 0.013000
param **.servers[100]**.endTime 0.014000
param **.servers[101]**.dstLid 6
param **.servers[101].app.msgLength 4096B
param **.servers[101].app.msg2msgGap 50000ns
param **.servers[101].app.msgNum 200
param **.servers[101]**.startTime 0.015000
param **.servers[101]**.endTime 0.016000
param **.servers[102]**.dstLid 50
param **.servers[102].app.msgLength 4096B
param **.servers[102].app.msg2msgGap 50000ns
param **.servers[102].app.msgNum 200
param **.servers[102]**.startTime 0.009000
param **.servers[102]**.endTime 0.010000
param **.servers[103]**.dstLid 13
param **.servers[103].app.msgLength 4096B
param **.servers[103].app.msg2msgGap 50000ns
param **.servers[103].app.msgNum 200
param **.servers[103]**.startTime 0.017000
param **.servers[103]**.endTime 0.018000
param **.servers[106]**.dstLid 122
param **.servers[106].app.msgLength 4096B
param **.servers[106].app.msg2msgGap 50000ns
param **.servers[106].app.msgNum 200
param **.servers[106]**.startTime 0.019000
param **.servers[106]**.endTime 0.020000
param **.servers[107]**.dstLid 101
param **.servers[107].app.msgLength 4096B
param **.servers[107].app.msg2msgGap 50000ns
param **.servers[107].app.msgNum 200
param **.servers[107]**.startTime 0.021000
param **.servers[107]**.endTime 0.022000
param **.servers[108]**.dstLid 21
param **.servers[108].app.msgLength 4096B
param **.servers[108].app.msg2msgGap 50000ns
param **.servers[108].app.msgNum 200
param **.servers[108]**.startTime 0.021000
param **.servers[108]**.endTime 0.022000
param **.servers[109]**.dstLid 6
param **.servers[109].app.msgLength 4096B
param **.servers[109].app.msg2msgGap 50000ns
param **.servers[109].app.msgNum 200
param **.servers[109]**.startTime 0.009000
param **.servers[109]**.endTime 0.010000
param **.servers[110]**.dstLid 5
param **.servers[110].app.msgLength 4096B
param **.servers[110].app.msg2msgGap 50000ns
param **.servers[110].app.msgNum 200
param **.servers[110]**.startTime 0.017000
param **.servers[110]**.endTime 0.018000
param **.servers[111]**.dstLid 44
param **.servers[111].app.msgLength 4096B
param **.servers[111].app.msg2msgGap 50000ns
param **.servers[111].app.msgNum 200
param **.servers[111]**.startTime 0.011000
param **.servers[111]**.endTime 0.012000
param **.servers[112]**.dstLid 35
param **.servers[112].app.msgLength 4096B
param **.servers[112].app.msg2msgGap 50000ns
param **.servers[112].app.msgNum 200
param **.servers[112]**.startTime 0.021000
param **.servers[112]**.endTime 0.022000
param **.servers[113]**.dstLid 31
param **.servers[113].app.msgLength 4096B
param **.servers[113].app.msg2msgGap 50000ns
param **.servers[113].app.msgNum 200
param **.servers[113]**.startTime 0.021000
param **.servers[113]**.endTime 0.022000
param **.servers[117]**.dstLid 66
param **.servers[117].app.msgLength 4096B
param **.servers[117].app.msg2msgGap 50000ns
param **.servers[117].app.msgNum 200
param **.servers[117]**.startTime 0.007000
param **.servers[117]**.endTime 0.008000
param **.servers[118]**.dstLid 5
param **.servers[118].app.msgLength 4096B
param **.servers[118].app.msg2msgGap 50000ns
param **.servers[118].app.msgNum 200
param **.servers[118]**.startTime 0.013000
param **.servers[118]**.endTime 0.014000
param **.servers[119]**.dstLid 30
param **.servers[119].app.msgLength 4096B
param **.servers[119].app.msg2msgGap 50000ns
param **.servers[119].app.msgNum 200
param **.servers[119]**.startTime 0.011000
param **.servers[119]**.endTime 0.012000
param **.servers[121]**.dstLid 77
param **.servers[121].app.msgLength 4096B
param **.servers[121].app.msg2msgGap 50000ns
param **.servers[121].app.msgNum 200
param **.servers[121]**.startTime 0.017000
param **.servers[121]**.endTime 0.018000
param **.servers[122]**.dstLid 37
param **.servers[122].app.msgLength 4096B
param **.servers[122].app.msg2msgGap 50000ns
param **.servers[122].app.msgNum 200
param **.servers[122]**.startTime 0.021000
param **.servers[122]**.endTime 0.022000
param **.servers[124]**.dstLid 45
param **.servers[124].app.msgLength 4096B
param **.servers[124].app.msg2msgGap 50000ns
param **.servers[124].app.msgNum 200
param **.servers[124]**.startTime 0.007000
param **.servers[124]**.endTime 0.008000
param **.servers[125]**.dstLid 83
param **.servers[125].app.msgLength 4096B
param **.servers[125].app.msg2msgGap 50000ns
param **.servers[125].app.msgNum 200
param **.servers[125]**.startTime 0.009000
param **.servers[125]**.endTime 0.010000
param **.servers[126]**.dstLid 102
param **.servers[126].app.msgLength 4096B
param **.servers[126].app.msg2msgGap 50000ns
param **.servers[126].app.msgNum 200
param **.servers[126]**.startTime 0.009000
param **.servers[126]**.endTime 0.010000
param **.servers[127]**.dstLid 24
param **.servers[127].app.msgLength 4096B
param **.servers[127].app.msg2msgGap 50000ns
param **.servers[127].app.msgNum 200
param **.servers[127]**.startTime 0.019000
param **.servers[127]**.endTime 0.020000
param **.**switches[*]**.fdbsVecFile "\"examples/evaluation_fattree128/fat_tree_128.fdbs\""
param **.startStatCol 100us
param **.dstMode "\"param\""
param **.app.dstSeqVecFile "\"\""
param **.app.dstSeqVecIdx 0
param **.msgLenMode "\"param\""
param **.msgMtuLen 2048B
param **.msgLenSet "\"4096 4096 4096\""
param **.msgLenProb "\"1 1 1 1\""
param **.msgSQ 0
param **.maxContPkts 10
param **.popDlyPerByte 0.25ns
param **.genDlyPerByte 0.25ns
param **.maxQueuedPerVL 10
param **.flit2FlitGap 0.001ns
param **.pkt2PktGap 0.001ns
param **.timeStep_us 49us
param **.CCT_Timer 30us
param **.vlarb.markrate 1
param **ibuf.maxBeingSent 1
param **ibuf.totalBufferSize 1000
param **.servers[*]**.ibuf.maxStatic* 32
param **.**switches[*]**.subport[*].ibuf.maxStatic* 32
param **.**switches[*]**.obuf.size 5
param **.servers[*]**.obuf.size 5
param **.pktFwdType "\"Pktfwd\""
param **.servers[*]**.vlarb.busWidth 16B
param **.servers[*]**.vlarb.coreFreq 1000MHz
param **.**switches[*]**.vlarb.coreFreq 1200MHz
param **.**switches[*]**.vlarb.busWidth 24B

vector 0 fat_tree_128.servers[89].sink "latency of Large message" ETV
vector 1 fat_tree_128.servers[62].sink "latency of Large message" ETV
vector 2 fat_tree_128.servers[15].sink "latency of Large message" ETV
vector 3 fat_tree_128.servers[70].sink "latency of Large message" ETV
vector 4 fat_tree_128.servers[54].sink "Latency of each message" ETV
vector 5 fat_tree_128.servers[19].sink "Latency of each message" ETV
vector 6 fat_tree_128.servers[55].sink "Latency of each message" ETV
vector 7 fat_tree_128.servers[29].sink "Latency of each message" ETV
vector 8 fat_tree_128.servers[65].sink "Latency of each message" ETV
vector 9 fat_tree_128.servers[44].sink "Latency of each message" ETV
vector 10 fat_tree_128.servers[118].sink "Latency of each message" ETV
vector 11 fat_tree_128.servers[126].sink "Latency of each message" ETV
vector 12 fat_tree_128.servers[64].sink "Latency of each message" ETV
vector 13 fat_tree_128.servers[39].sink "latency of Large message" ETV
vector 14 fat_tree_128.servers[94].sink "Latency of each message" ETV
vector 15 fat_tree_128.servers[111].sink "Latency of each message" ETV
vector 16 fat_tree_128.servers[104].sink "latency of Large message" ETV
vector 17 fat_tree_128.servers[26].sink "latency of Large message" ETV
vector 18 fat_tree_128.servers[116].sink "latency of Large message" ETV
vector 19 fat_tree_128.servers[59].sink "Latency of each message" ETV
vector 20 fat_tree_128.servers[86].sink "Latency of each message" ETV
vector 21 fat_tree_128.servers[21].sink "Latency of each message" ETV
vector 22 fat_tree_128.servers[101].sink "Latency of each message" ETV
vector 23 fat_tree_128.servers[84].sink "Latency of each message" ETV
vector 24 fat_tree_128.servers[49].sink "Latency of each message" ETV
vector 25 fat_tree_128.servers[5].sink "Latency of each message" ETV
vector 26 fat_tree_128.servers[109].sink "Latency of each message" ETV
vector 27 fat_tree_128.servers[8].sink "Latency of each message" ETV
vector 28 fat_tree_128.servers[82].sink "Latency of each message" ETV
vector 29 fat_tree_128.servers[96].sink "Latency of each message" ETV
vector 30 fat_tree_128.servers[38].sink "Latency of each message" ETV
vector 31 fat_tree_128.servers[76].sink "Latency of each message" ETV
vector 32 fat_tree_128.servers[72].sink "Latency of each message" ETV
vector 33 fat_tree_128.servers[77].sink "Latency of each message" ETV
vector 34 fat_tree_128.servers[50].sink "Latency of each message" ETV
vector 35 fat_tree_128.servers[81].sink "Latency of each message" ETV
vector 36 fat_tree_128.servers[88].sink "Latency of each message" ETV
vector 37 fat_tree_128.servers[7].sink "Latency of each message" ETV
vector 38 fat_tree_128.servers[43].sink "Latency of each message" ETV
vector 39 fat_tree_128.servers[95].sink "Latency of each message" ETV
vector 40 fat_tree_128.servers[103].sink "Latency of each message" ETV
vector 41 fat_tree_128.servers[127].sink "Latency of each message" ETV
vector 42 fat_tree_128.servers[90].sink "Latency of each message" ETV
vector 43 fat_tree_128.servers[98].sink "Latency of each message" ETV
vector 44 fat_tree_128.servers[113].sink "Latency of each message" ETV
vector 45 fat_tree_128.servers[46].sink "Latency of each message" ETV
vector 46 fat_tree_128.servers[4].sink "Latency of each message" ETV
vector 47 fat_tree_128.servers[100].sink "Latency of each message" ETV
vector 48 fat_tree_128.servers[47].sink "Latency of each message" ETV
vector 49 fat_tree_128.servers[83].sink "Latency of each message" ETV
vector 50 fat_tree_128.servers[13].sink "Latency of each message" ETV
vector 51 fat_tree_128.servers[73].sink "Latency of each message" ETV
vector 52 fat_tree_128.servers[57].sink "Latency of each message" ETV
vector 53 fat_tree_128.servers[80].sink "Latency of each message" ETV
vector 54 fat_tree_128.servers[35].sink "Latency of each message" ETV
vector 55 fat_tree_128.servers[48].sink "Latency of each message" ETV
vector 56 fat_tree_128.servers[37].sink "Latency of each message" ETV
vector 57 fat_tree_128.servers[117].sink "Latency of each message" ETV
vector 58 fat_tree_128.servers[24].sink "Latency of each message" ETV
vector 59 fat_tree_128.servers[78].sink "Latency of each message" ETV
vector 60 fat_tree_128.servers[68].sink "Latency of each message" ETV
vector 61 fat_tree_128.servers[12].sink "Latency of each message" ETV
vector 62 fat_tree_128.servers[28].sink "Latency of each message" ETV
vector 63 fat_tree_128.servers[9].sink "Latency of each message" ETV
vector 64 fat_tree_128.servers[121].sink "Latency of each message" ETV
vector 65 fat_tree_128.servers[92].sink "Latency of each message" ETV
vector 66 fat_tree_128.servers[23].sink "Latency of each message" ETV
vector 67 fat_tree_128.servers[52].sink "Latency of each message" ETV
vector 68 fat_tree_128.servers[93].sink "Latency of each message" ETV
vector 69 fat_tree_128.servers[36].sink "Latency of each message" ETV
vector 70 fat_tree_128.servers[125].sink "Latency of each message" ETV
vector 71 fat_tree_128.servers[20].sink "Latency of each message" ETV
vector 72 fat_tree_128.servers[119].sink "Latency of each message" ETV
vector 73 fat_tree_128.servers[34].sink "Latency of each message" ETV
vector 74 fat_tree_128.servers[30].sink "Latency of each message" ETV
0	45264 170 3904931 12104884 0.006049589 0.010271555 5 0.001049076 0.001076226 0.005278682 5.5734346367e-06
1	45434 170 3904933 12060293 0.006049589 0.010245943 5 0.001049076 0.001050614 0.005249996 5.512493386272e-06
2	45604 344 4229264 39835235 0.006220993 0.030749487 10 0.00122048 0.007944174 0.032478726 0.00015603131548364
3	45948 345 4933485 27635159 0.006593911 0.020079407 10 0.001593398 0.003218734 0.023670612 6.1198217396232e-05
4	46293 6311 5799192 22814859 0.007051124 0.017103012 200 6.12e-07 6.14e-07 0.000122468 7.4992168e-11
5	52604 6310 5799627 22815162 0.007051324 0.017103212 200 8.12e-07 8.14e-07 0.000162492 1.32018392e-10
6	58914 13108 5800047 26073459 0.007051524 0.019108143 400 1.012e-06 8.575e-06 0.001578126 9.923532452e-09
7	72022 19621 5800049 38370641 0.007051524 0.029103412 600 1.012e-06 1.014e-06 0.000607536 6.1516713399999e-10
8	91643 6512 5800051 22815523 0.007051524 0.017103412 200 1.012e-06 1.014e-06 0.000202518 2.05067868e-10
9	98155 13060 5800053 31746328 0.007051524 0.023103212 400 8.12e-07 8.107e-06 0.000939492 3.745596066e-09
10	111215 13474 5800638 38370643 0.007052036 0.029103412 400 1.012e-06 7.231e-06 0.000625567 1.386164249e-09
11	124689 6712 5801157 22816170 0.007052548 0.017104436 200 2.036e-06 2.039e-06 0.000407357 8.29698821e-10
12	131401 13518 5808345 38370645 0.007055663 0.029103412 400 1.012e-06 6.207e-06 0.001212827 4.9862999949999e-09
13	144919 1071 5886831 43688492 0.007097965 0.037081591 30 0.002097452 0.013975084 0.159747762 0.0011477591608457
14	145990 6958 5900142 22893738 0.007102767 0.017150767 200 4.5791e-05 5.2255e-05 0.009581432 4.59385214024e-07
15	152948 20672 6334998 36496766 0.007328047 0.027103414 600 1.012e-06 0.000277535 0.042101905 8.9310808392728e-06
16	173620 536 7917380 29193383 0.008146229 0.021105645 15 0.003145716 0.003426238 0.04998073 0.00016668244961978
17	174156 897 7917841 40537062 0.008146741 0.031623151 25 0.002211822 0.012586998 0.108836496 0.00066792702930163
18	175053 714 7917845 35913871 0.008146741 0.026523301 20 0.002117284 0.00644225 0.076444338 0.00033169051499534
19	175767 6749 9672625 26062545 0.009051524 0.019103412 200 1.012e-06 1.526e-06 0.000216314 2.40122052e-10
20	182516 6749 9672627 26062547 0.009051524 0.019103412 200 1.012e-06 1.526e-06 0.00021017 2.24516292e-10
21	189265 6749 9672629 26062549 0.009051524 0.019103412 200 1.012e-06 1.014e-06 0.000202492 2.05015192e-10
22	196014 13505 9673282 29191785 0.009052036 0.021103414 400 1.012e-06 2.039e-06 0.000584747 9.57893843e-10
23	209519 6751 9673284 26066623 0.009052036 0.019103924 200 1.524e-06 1.526e-06 0.000304918 4.648751e-10
24	216270 6751 9673286 26066625 0.009052036 0.019103924 200 1.524e-06 1.526e-06 0.000304918 4.648751e-10
25	223021 26816 9677669 36496770 0.00905255 0.027103414 800 6.12e-07 2.039e-06 0.001139654 1.939371746e-09
26	249837 13510 9677671 36496774 0.00905255 0.027103414 400 1.012e-06 4.027e-06 0.000561021 9.52820985e-10
27	263347 20547 9679143 38370639 0.009053487 0.029103412 600 1.012e-06 5.1615e-05 0.010744335 4.48908942885e-07
28	283894 13550 9685641 34228518 0.009056559 0.025103412 400 1.012e-06 9.423e-06 0.001601137 1.0280975649e-08
29	297444 6796 9686421 26073931 0.009057011 0.019108383 200 4.859e-06 6.583e-06 0.001160452 6.773442288e-09
30	304240 6997 9774766 26139810 0.009101675 0.019149103 200 4.5729e-05 5.1163e-05 0.00954344 4.557350452e-07
31	311237 13312 13362911 36498050 0.011051326 0.027104438 400 8.12e-07 2.039e-06 0.000491955 7.22174991e-10
32	324549 13345 13362913 31746662 0.011051326 0.023103412 400 8.12e-07 8.543e-06 0.001008963 5.041405805e-09
33	337894 13108 13362915 36493717 0.011051326 0.027103012 400 6.12e-07 8.14e-07 0.000284942 2.0697769e-10
34	351002 6755 13363440 29191787 0.011051526 0.021103414 200 1.012e-06 1.014e-06 0.000202491 2.05013165e-10
35	357757 6755 13363442 29191791 0.011051526 0.021103414 200 1.012e-06 1.014e-06 0.000202491 2.05013165e-10
36	364512 13586 13364353 29192603 0.011052235 0.021104236 400 8.12e-07 8.399e-06 0.00171605 8.724982234e-09
37	378098 6781 13364409 29191789 0.011052435 0.021103414 200 1.012e-06 5.107e-06 0.000441326 1.355082874e-09
38	384879 13848 13370903 31838922 0.011056843 0.023177073 400 4.621e-06 0.000139323 0.01910871 1.713955710568e-06
39	398727 6800 13375358 29196784 0.011059503 0.021106991 200 2.831e-06 8.991e-06 0.001292152 8.836648008e-09
40	405527 7087 13572000 29273304 0.011186479 0.021165871 200 6.3471e-05 0.000135967 0.018157944 1.774865651784e-06
41	412614 13955 13732498 36496772 0.011288879 0.027103414 400 1.012e-06 0.000238367 0.032980609 5.629653720001e-06
42	426569 6554 16492697 31746332 0.013051324 0.023103212 200 8.12e-07 8.14e-07 0.000162463 1.31971237e-10
43	433123 6756 16493058 31746660 0.013051524 0.023103412 200 1.012e-06 1.014e-06 0.000202489 2.05009113e-10
44	439879 6756 16493060 31746666 0.013051524 0.023103412 200 1.012e-06 1.014e-06 0.000202489 2.05009113e-10
45	446635 6756 16493062 31746668 0.013051524 0.023103412 200 1.012e-06 1.524e-06 0.00020787 2.18408654e-10
46	453391 20307 16493064 36498546 0.013051524 0.027105462 600 1.012e-06 1.1773e-05 0.001608856 8.2985968059999e-09
47	473698 13468 16499208 40129475 0.013055635 0.031103212 400 8.12e-07 7.593e-06 0.001298081 5.780356661e-09
48	487166 6801 16504376 31752006 0.013058763 0.023108943 200 4.673e-06 1.0027e-05 0.001299028 8.712166984e-09
49	493967 6754 19532503 34228512 0.015051524 0.025103412 200 1.012e-06 1.015e-06 0.00020249 2.05011142e-10
50	500721 6754 19532874 34228880 0.015052036 0.025103924 200 1.524e-06 1.527e-06 0.000304894 4.64801902e-10
51	507475 6756 19532876 34228882 0.015052036 0.025103924 200 1.524e-06 1.527e-06 0.000304894 4.64801902e-10
52	514231 6756 19533225 34231653 0.015052548 0.025104436 200 2.036e-06 2.039e-06 0.000407358 8.29702894e-10
53	520987 13536 19538621 38371176 0.015054639 0.029104436 400 1.012e-06 6.303e-06 0.000982248 3.258521082e-09
54	534523 6802 19542899 34236967 0.015057099 0.025109281 200 4.691e-06 1.0043e-05 0.001217674 7.525957344e-09
55	541325 6773 19543098 34228510 0.015057199 0.025103412 200 1.012e-06 8.495e-06 0.000665158 3.298205094e-09
56	548098 6754 22730938 36497650 0.017052038 0.027103926 200 1.524e-06 1.527e-06 0.000304896 4.64808002e-10
57	554852 13509 22731005 36498052 0.017052038 0.027104438 400 1.014e-06 2.038e-06 0.000695942 1.253153018e-09
58	568361 6770 22733140 36497654 0.017052975 0.027103926 200 1.012e-06 8.479e-06 0.000468207 1.901071973e-09
59	575131 6771 22733660 36496768 0.017053487 0.027103414 200 1.012e-06 7.263e-06 0.000444281 1.564945813e-09
60	581902 13524 22738441 40129661 0.017056047 0.031103412 400 1.012e-06 8.447e-06 0.000747653 2.313358053e-09
61	595426 6796 22739528 36498329 0.017056919 0.02710495 200 2.548e-06 1.2423e-05 0.001174705 7.580833451e-09
62	602222 6986 22888662 36498054 0.017147587 0.027104438 200 2.036e-06 9.9775e-05 0.011106658 7.94091131332e-07
63	609208 13508 25977662 40129911 0.019051524 0.031103924 400 1.012e-06 1.526e-06 0.000507455 6.69991701e-10
64	622716 6754 25977664 38370651 0.019051524 0.029103412 200 1.012e-06 1.014e-06 0.000202527 2.05086101e-10
65	629470 6763 25986466 38370984 0.019055919 0.029103924 200 1.524e-06 7.311e-06 0.000425974 1.26818498e-09
66	636233 6800 25991440 38377843 0.019058991 0.029110575 200 4.559e-06 8.559e-06 0.001282936 8.497370184e-09
67	643033 6934 26135329 38370649 0.019146543 0.029103412 200 1.012e-06 9.6031e-05 0.007303486 4.26838002056e-07
68	649967 6753 29113491 40129663 0.021051524 0.031103412 200 1.012e-06 1.015e-06 0.000202503 2.05037481e-10
69	656720 6753 29113493 40129667 0.021051524 0.031103412 200 1.012e-06 1.014e-06 0.000202502 2.05035452e-10
70	663473 6755 29115185 40130103 0.021052548 0.031104436 200 2.036e-06 2.039e-06 0.000407357 8.29698821e-10
71	670228 6778 29121117 40129665 0.021055543 0.031103412 200 1.012e-06 5.059e-06 0.000577909 2.276239625e-09
72	677006 6800 29124778 40136096 0.021057839 0.031109423 200 4.607e-06 8.383e-06 0.001299832 8.7142114e-09
73	683806 6906 29162920 40133448 0.021086165 0.031107315 200 4.063e-06 3.8535e-05 0.00431354 1.43807855904e-07
74	690712 6906 29184580 40133698 0.021100523 0.031108339 200 5.087e-06 5.0011e-05 0.004611838 1.60718978816e-07

