version 2
run General-0-20200526-20:15:45-194729
attr configname General
attr datetime 20200526-20:15:45
attr experiment General
attr inifile examples/evaluation_fattree128/fat-tree-ibcc.ini
attr iterationvars ""
attr iterationvarsf ""
attr measurement ""
attr network ib_model.examples.evaluation_fattree128.fat_tree_128
attr processid 194729
attr repetition 0
attr replication #0
attr resultdir results
attr runnumber 0
attr seedset 0
param **.servers[0].srcLid 1
param **.servers[1].srcLid 2
param **.servers[2].srcLid 3
param **.servers[3].srcLid 4
param **.servers[4].srcLid 5
param **.servers[5].srcLid 6
param **.servers[6].srcLid 7
param **.servers[7].srcLid 8
param **.servers[8].srcLid 9
param **.servers[9].srcLid 10
param **.servers[10].srcLid 11
param **.servers[11].srcLid 12
param **.servers[12].srcLid 13
param **.servers[13].srcLid 14
param **.servers[14].srcLid 15
param **.servers[15].srcLid 16
param **.servers[16].srcLid 17
param **.servers[17].srcLid 18
param **.servers[18].srcLid 19
param **.servers[19].srcLid 20
param **.servers[20].srcLid 21
param **.servers[21].srcLid 22
param **.servers[22].srcLid 23
param **.servers[23].srcLid 24
param **.servers[24].srcLid 25
param **.servers[25].srcLid 26
param **.servers[26].srcLid 27
param **.servers[27].srcLid 28
param **.servers[28].srcLid 29
param **.servers[29].srcLid 30
param **.servers[30].srcLid 31
param **.servers[31].srcLid 32
param **.servers[32].srcLid 33
param **.servers[33].srcLid 34
param **.servers[34].srcLid 35
param **.servers[35].srcLid 36
param **.servers[36].srcLid 37
param **.servers[37].srcLid 38
param **.servers[38].srcLid 39
param **.servers[39].srcLid 40
param **.servers[40].srcLid 41
param **.servers[41].srcLid 42
param **.servers[42].srcLid 43
param **.servers[43].srcLid 44
param **.servers[44].srcLid 45
param **.servers[45].srcLid 46
param **.servers[46].srcLid 47
param **.servers[47].srcLid 48
param **.servers[48].srcLid 49
param **.servers[49].srcLid 50
param **.servers[50].srcLid 51
param **.servers[51].srcLid 52
param **.servers[52].srcLid 53
param **.servers[53].srcLid 54
param **.servers[54].srcLid 55
param **.servers[55].srcLid 56
param **.servers[56].srcLid 57
param **.servers[57].srcLid 58
param **.servers[58].srcLid 59
param **.servers[59].srcLid 60
param **.servers[60].srcLid 61
param **.servers[61].srcLid 62
param **.servers[62].srcLid 63
param **.servers[63].srcLid 64
param **.servers[64].srcLid 65
param **.servers[65].srcLid 66
param **.servers[66].srcLid 67
param **.servers[67].srcLid 68
param **.servers[68].srcLid 69
param **.servers[69].srcLid 70
param **.servers[70].srcLid 71
param **.servers[71].srcLid 72
param **.servers[72].srcLid 73
param **.servers[73].srcLid 74
param **.servers[74].srcLid 75
param **.servers[75].srcLid 76
param **.servers[76].srcLid 77
param **.servers[77].srcLid 78
param **.servers[78].srcLid 79
param **.servers[79].srcLid 80
param **.servers[80].srcLid 81
param **.servers[81].srcLid 82
param **.servers[82].srcLid 83
param **.servers[83].srcLid 84
param **.servers[84].srcLid 85
param **.servers[85].srcLid 86
param **.servers[86].srcLid 87
param **.servers[87].srcLid 88
param **.servers[88].srcLid 89
param **.servers[89].srcLid 90
param **.servers[90].srcLid 91
param **.servers[91].srcLid 92
param **.servers[92].srcLid 93
param **.servers[93].srcLid 94
param **.servers[94].srcLid 95
param **.servers[95].srcLid 96
param **.servers[96].srcLid 97
param **.servers[97].srcLid 98
param **.servers[98].srcLid 99
param **.servers[99].srcLid 100
param **.servers[100].srcLid 101
param **.servers[101].srcLid 102
param **.servers[102].srcLid 103
param **.servers[103].srcLid 104
param **.servers[104].srcLid 105
param **.servers[105].srcLid 106
param **.servers[106].srcLid 107
param **.servers[107].srcLid 108
param **.servers[108].srcLid 109
param **.servers[109].srcLid 110
param **.servers[110].srcLid 111
param **.servers[111].srcLid 112
param **.servers[112].srcLid 113
param **.servers[113].srcLid 114
param **.servers[114].srcLid 115
param **.servers[115].srcLid 116
param **.servers[116].srcLid 117
param **.servers[117].srcLid 118
param **.servers[118].srcLid 119
param **.servers[119].srcLid 120
param **.servers[120].srcLid 121
param **.servers[121].srcLid 122
param **.servers[122].srcLid 123
param **.servers[123].srcLid 124
param **.servers[124].srcLid 125
param **.servers[125].srcLid 126
param **.servers[126].srcLid 127
param **.servers[127].srcLid 128
param **.flitSize 2048B
param **.width 4
param **.speed 10Gbps
param **.maxVL 1
param **.sink.hiccupDuration 0.001us
param **.sink.hiccupDelay 10000us
param **.sink.repFirstPackets 0
param **.obuf.credMinTime 4.096us
param **H_**.obuf.size 5
param **.ibuf.lossyMode false
param **.ISWDelay 50ns
param **.VSWDelay 50ns
param **SW**.vlarb.coreFreq 1200MHz
param **H_**.vlarb.coreFreq 1000MHz
param **SW**.vlarb.busWidth 24B
param **H_**.vlarb.busWidth 16B
param **.vlarb.vlHighLimit 16
param **.vlarb.highVLArbEntries "\"0:1 1:20 2:40 3:80\""
param **.vlarb.lowVLArbEntries "\"0:1 1:20 2:40 3:80\""
param **.vlarb.useFCFSRQArb false
param **.pktfwd.AdaptMode "\"none\""
param **.pktfwd.LIDBindTime 2us
param **.pktfwd.TQBusy1Thd 20
param **.pktfwd.TQBusy2Thd 40
param **.pktfwd.TQBusy3Thd 80
param **.pktfwd.ARAdaptThd 4
param **.pktfwd.OPSelAlgo "\"greedy\""
param **.pktfwd.GreedyRandSize 3
param **.pktfwd.statRepTime 10us
param **.pktfwd.OPSelOffsetByDLID 0
param **.L1_switches[0]**.fdbIndex 0
param **.L1_switches[1]**.fdbIndex 1
param **.L1_switches[2]**.fdbIndex 2
param **.L1_switches[3]**.fdbIndex 3
param **.L1_switches[4]**.fdbIndex 4
param **.L1_switches[5]**.fdbIndex 5
param **.L1_switches[6]**.fdbIndex 6
param **.L1_switches[7]**.fdbIndex 7
param **.L1_switches[8]**.fdbIndex 8
param **.L1_switches[9]**.fdbIndex 9
param **.L1_switches[10]**.fdbIndex 10
param **.L1_switches[11]**.fdbIndex 11
param **.L1_switches[12]**.fdbIndex 12
param **.L1_switches[13]**.fdbIndex 13
param **.L1_switches[14]**.fdbIndex 14
param **.L1_switches[15]**.fdbIndex 15
param **.L1_switches[16]**.fdbIndex 16
param **.L1_switches[17]**.fdbIndex 17
param **.L1_switches[18]**.fdbIndex 18
param **.L1_switches[19]**.fdbIndex 19
param **.L1_switches[20]**.fdbIndex 20
param **.L1_switches[21]**.fdbIndex 21
param **.L1_switches[22]**.fdbIndex 22
param **.L1_switches[23]**.fdbIndex 23
param **.L1_switches[24]**.fdbIndex 24
param **.L1_switches[25]**.fdbIndex 25
param **.L1_switches[26]**.fdbIndex 26
param **.L1_switches[27]**.fdbIndex 27
param **.L1_switches[28]**.fdbIndex 28
param **.L1_switches[29]**.fdbIndex 29
param **.L1_switches[30]**.fdbIndex 30
param **.L1_switches[31]**.fdbIndex 31
param **.L2_switches[0]**.fdbIndex 32
param **.L2_switches[1]**.fdbIndex 33
param **.L2_switches[2]**.fdbIndex 34
param **.L2_switches[3]**.fdbIndex 35
param **.L2_switches[4]**.fdbIndex 36
param **.L2_switches[5]**.fdbIndex 37
param **.L2_switches[6]**.fdbIndex 38
param **.L2_switches[7]**.fdbIndex 39
param **.L2_switches[8]**.fdbIndex 40
param **.L2_switches[9]**.fdbIndex 41
param **.L2_switches[10]**.fdbIndex 42
param **.L2_switches[11]**.fdbIndex 43
param **.L2_switches[12]**.fdbIndex 44
param **.L2_switches[13]**.fdbIndex 45
param **.L2_switches[14]**.fdbIndex 46
param **.L2_switches[15]**.fdbIndex 47
param **.L2_switches[16]**.fdbIndex 48
param **.L2_switches[17]**.fdbIndex 49
param **.L2_switches[18]**.fdbIndex 50
param **.L2_switches[19]**.fdbIndex 51
param **.L2_switches[20]**.fdbIndex 52
param **.L2_switches[21]**.fdbIndex 53
param **.L2_switches[22]**.fdbIndex 54
param **.L2_switches[23]**.fdbIndex 55
param **.L2_switches[24]**.fdbIndex 56
param **.L2_switches[25]**.fdbIndex 57
param **.L2_switches[26]**.fdbIndex 58
param **.L2_switches[27]**.fdbIndex 59
param **.L2_switches[28]**.fdbIndex 60
param **.L2_switches[29]**.fdbIndex 61
param **.L2_switches[30]**.fdbIndex 62
param **.L2_switches[31]**.fdbIndex 63
param **.L3_switches[0]**.fdbIndex 64
param **.L3_switches[1]**.fdbIndex 65
param **.L3_switches[2]**.fdbIndex 66
param **.L3_switches[3]**.fdbIndex 67
param **.L3_switches[4]**.fdbIndex 68
param **.L3_switches[5]**.fdbIndex 69
param **.L3_switches[6]**.fdbIndex 70
param **.L3_switches[7]**.fdbIndex 71
param **.L3_switches[8]**.fdbIndex 72
param **.L3_switches[9]**.fdbIndex 73
param **.L3_switches[10]**.fdbIndex 74
param **.L3_switches[11]**.fdbIndex 75
param **.L3_switches[12]**.fdbIndex 76
param **.L3_switches[13]**.fdbIndex 77
param **.L3_switches[14]**.fdbIndex 78
param **.L3_switches[15]**.fdbIndex 79
param **.servers[97]**.dstLid 117
param **.servers[97].app.msgLength 4194304B
param **.servers[97].app.msg2msgGap 1ns
param **.servers[97].app.msgNum 5
param **.servers[97].**.on_average_throughput 1
param **.servers[97]**.startTime 0.005000
param **.servers[97]**.endTime 0.025000
param **.servers[97].gen.on_cc 1
param **.servers[116].sink.on_cc 1
param **.servers[97].sink.on_cc 1
param **.servers[116].gen.on_cc 1
param **.servers[116]**.on_utilization 1
param **.servers[61]**.dstLid 105
param **.servers[61].app.msgLength 4194304B
param **.servers[61].app.msg2msgGap 1ns
param **.servers[61].app.msgNum 5
param **.servers[61].**.on_average_throughput 1
param **.servers[61]**.startTime 0.005000
param **.servers[61]**.endTime 0.025000
param **.servers[61].gen.on_cc 1
param **.servers[104].sink.on_cc 1
param **.servers[61].sink.on_cc 1
param **.servers[104].gen.on_cc 1
param **.servers[104]**.on_utilization 1
param **.servers[91]**.dstLid 40
param **.servers[91].app.msgLength 4194304B
param **.servers[91].app.msg2msgGap 1ns
param **.servers[91].app.msgNum 5
param **.servers[91].**.on_average_throughput 1
param **.servers[91]**.startTime 0.005000
param **.servers[91]**.endTime 0.025000
param **.servers[91].gen.on_cc 1
param **.servers[39].sink.on_cc 1
param **.servers[91].sink.on_cc 1
param **.servers[39].gen.on_cc 1
param **.servers[39]**.on_utilization 1
param **.servers[1]**.dstLid 27
param **.servers[1].app.msgLength 4194304B
param **.servers[1].app.msg2msgGap 1ns
param **.servers[1].app.msgNum 5
param **.servers[1].**.on_average_throughput 1
param **.servers[1]**.startTime 0.005000
param **.servers[1]**.endTime 0.025000
param **.servers[1].gen.on_cc 1
param **.servers[26].sink.on_cc 1
param **.servers[1].sink.on_cc 1
param **.servers[26].gen.on_cc 1
param **.servers[26]**.on_utilization 1
param **.servers[115]**.dstLid 27
param **.servers[115].app.msgLength 4194304B
param **.servers[115].app.msg2msgGap 1ns
param **.servers[115].app.msgNum 5
param **.servers[115].**.on_average_throughput 1
param **.servers[115]**.startTime 0.005000
param **.servers[115]**.endTime 0.025000
param **.servers[115].gen.on_cc 1
param **.servers[26].sink.on_cc 1
param **.servers[115].sink.on_cc 1
param **.servers[26].gen.on_cc 1
param **.servers[26]**.on_utilization 1
param **.servers[114]**.dstLid 40
param **.servers[114].app.msgLength 4194304B
param **.servers[114].app.msg2msgGap 1ns
param **.servers[114].app.msgNum 5
param **.servers[114].**.on_average_throughput 1
param **.servers[114]**.startTime 0.005000
param **.servers[114]**.endTime 0.025000
param **.servers[114].gen.on_cc 1
param **.servers[39].sink.on_cc 1
param **.servers[114].sink.on_cc 1
param **.servers[39].gen.on_cc 1
param **.servers[39]**.on_utilization 1
param **.servers[75]**.dstLid 71
param **.servers[75].app.msgLength 4194304B
param **.servers[75].app.msg2msgGap 1ns
param **.servers[75].app.msgNum 5
param **.servers[75].**.on_average_throughput 1
param **.servers[75]**.startTime 0.005000
param **.servers[75]**.endTime 0.025000
param **.servers[75].gen.on_cc 1
param **.servers[70].sink.on_cc 1
param **.servers[75].sink.on_cc 1
param **.servers[70].gen.on_cc 1
param **.servers[70]**.on_utilization 1
param **.servers[3]**.dstLid 16
param **.servers[3].app.msgLength 4194304B
param **.servers[3].app.msg2msgGap 1ns
param **.servers[3].app.msgNum 5
param **.servers[3].**.on_average_throughput 1
param **.servers[3]**.startTime 0.005000
param **.servers[3]**.endTime 0.025000
param **.servers[3].gen.on_cc 1
param **.servers[15].sink.on_cc 1
param **.servers[3].sink.on_cc 1
param **.servers[15].gen.on_cc 1
param **.servers[15]**.on_utilization 1
param **.servers[85]**.dstLid 117
param **.servers[85].app.msgLength 4194304B
param **.servers[85].app.msg2msgGap 1ns
param **.servers[85].app.msgNum 5
param **.servers[85].**.on_average_throughput 1
param **.servers[85]**.startTime 0.005000
param **.servers[85]**.endTime 0.025000
param **.servers[85].gen.on_cc 1
param **.servers[116].sink.on_cc 1
param **.servers[85].sink.on_cc 1
param **.servers[116].gen.on_cc 1
param **.servers[116]**.on_utilization 1
param **.servers[25]**.dstLid 90
param **.servers[25].app.msgLength 4194304B
param **.servers[25].app.msg2msgGap 1ns
param **.servers[25].app.msgNum 5
param **.servers[25].**.on_average_throughput 1
param **.servers[25]**.startTime 0.005000
param **.servers[25]**.endTime 0.025000
param **.servers[25].gen.on_cc 1
param **.servers[89].sink.on_cc 1
param **.servers[25].sink.on_cc 1
param **.servers[89].gen.on_cc 1
param **.servers[89]**.on_utilization 1
param **.servers[42]**.dstLid 105
param **.servers[42].app.msgLength 4194304B
param **.servers[42].app.msg2msgGap 1ns
param **.servers[42].app.msgNum 5
param **.servers[42].**.on_average_throughput 1
param **.servers[42]**.startTime 0.005000
param **.servers[42]**.endTime 0.025000
param **.servers[42].gen.on_cc 1
param **.servers[104].sink.on_cc 1
param **.servers[42].sink.on_cc 1
param **.servers[104].gen.on_cc 1
param **.servers[104]**.on_utilization 1
param **.servers[31]**.dstLid 40
param **.servers[31].app.msgLength 4194304B
param **.servers[31].app.msg2msgGap 1ns
param **.servers[31].app.msgNum 5
param **.servers[31].**.on_average_throughput 1
param **.servers[31]**.startTime 0.005000
param **.servers[31]**.endTime 0.025000
param **.servers[31].gen.on_cc 1
param **.servers[39].sink.on_cc 1
param **.servers[31].sink.on_cc 1
param **.servers[39].gen.on_cc 1
param **.servers[39]**.on_utilization 1
param **.servers[53]**.dstLid 117
param **.servers[53].app.msgLength 4194304B
param **.servers[53].app.msg2msgGap 1ns
param **.servers[53].app.msgNum 5
param **.servers[53].**.on_average_throughput 1
param **.servers[53]**.startTime 0.005000
param **.servers[53]**.endTime 0.025000
param **.servers[53].gen.on_cc 1
param **.servers[116].sink.on_cc 1
param **.servers[53].sink.on_cc 1
param **.servers[116].gen.on_cc 1
param **.servers[116]**.on_utilization 1
param **.servers[33]**.dstLid 63
param **.servers[33].app.msgLength 4194304B
param **.servers[33].app.msg2msgGap 1ns
param **.servers[33].app.msgNum 5
param **.servers[33].**.on_average_throughput 1
param **.servers[33]**.startTime 0.005000
param **.servers[33]**.endTime 0.025000
param **.servers[33].gen.on_cc 1
param **.servers[62].sink.on_cc 1
param **.servers[33].sink.on_cc 1
param **.servers[62].gen.on_cc 1
param **.servers[62]**.on_utilization 1
param **.servers[67]**.dstLid 16
param **.servers[67].app.msgLength 4194304B
param **.servers[67].app.msg2msgGap 1ns
param **.servers[67].app.msgNum 5
param **.servers[67].**.on_average_throughput 1
param **.servers[67]**.startTime 0.005000
param **.servers[67]**.endTime 0.025000
param **.servers[67].gen.on_cc 1
param **.servers[15].sink.on_cc 1
param **.servers[67].sink.on_cc 1
param **.servers[15].gen.on_cc 1
param **.servers[15]**.on_utilization 1
param **.servers[11]**.dstLid 71
param **.servers[11].app.msgLength 4194304B
param **.servers[11].app.msg2msgGap 1ns
param **.servers[11].app.msgNum 5
param **.servers[11].**.on_average_throughput 1
param **.servers[11]**.startTime 0.005000
param **.servers[11]**.endTime 0.025000
param **.servers[11].gen.on_cc 1
param **.servers[70].sink.on_cc 1
param **.servers[11].sink.on_cc 1
param **.servers[70].gen.on_cc 1
param **.servers[70]**.on_utilization 1
param **.servers[69]**.dstLid 40
param **.servers[69].app.msgLength 4194304B
param **.servers[69].app.msg2msgGap 1ns
param **.servers[69].app.msgNum 5
param **.servers[69].**.on_average_throughput 1
param **.servers[69]**.startTime 0.005000
param **.servers[69]**.endTime 0.025000
param **.servers[69].gen.on_cc 1
param **.servers[39].sink.on_cc 1
param **.servers[69].sink.on_cc 1
param **.servers[39].gen.on_cc 1
param **.servers[39]**.on_utilization 1
param **.servers[105]**.dstLid 117
param **.servers[105].app.msgLength 4194304B
param **.servers[105].app.msg2msgGap 1ns
param **.servers[105].app.msgNum 5
param **.servers[105].**.on_average_throughput 1
param **.servers[105]**.startTime 0.005000
param **.servers[105]**.endTime 0.025000
param **.servers[105].gen.on_cc 1
param **.servers[116].sink.on_cc 1
param **.servers[105].sink.on_cc 1
param **.servers[116].gen.on_cc 1
param **.servers[116]**.on_utilization 1
param **.servers[40]**.dstLid 40
param **.servers[40].app.msgLength 4194304B
param **.servers[40].app.msg2msgGap 1ns
param **.servers[40].app.msgNum 5
param **.servers[40].**.on_average_throughput 1
param **.servers[40]**.startTime 0.005000
param **.servers[40]**.endTime 0.025000
param **.servers[40].gen.on_cc 1
param **.servers[39].sink.on_cc 1
param **.servers[40].sink.on_cc 1
param **.servers[39].gen.on_cc 1
param **.servers[39]**.on_utilization 1
param **.servers[10]**.dstLid 105
param **.servers[10].app.msgLength 4194304B
param **.servers[10].app.msg2msgGap 1ns
param **.servers[10].app.msgNum 5
param **.servers[10].**.on_average_throughput 1
param **.servers[10]**.startTime 0.005000
param **.servers[10]**.endTime 0.025000
param **.servers[10].gen.on_cc 1
param **.servers[104].sink.on_cc 1
param **.servers[10].sink.on_cc 1
param **.servers[104].gen.on_cc 1
param **.servers[104]**.on_utilization 1
param **.servers[120]**.dstLid 27
param **.servers[120].app.msgLength 4194304B
param **.servers[120].app.msg2msgGap 1ns
param **.servers[120].app.msgNum 5
param **.servers[120].**.on_average_throughput 1
param **.servers[120]**.startTime 0.005000
param **.servers[120]**.endTime 0.025000
param **.servers[120].gen.on_cc 1
param **.servers[26].sink.on_cc 1
param **.servers[120].sink.on_cc 1
param **.servers[26].gen.on_cc 1
param **.servers[26]**.on_utilization 1
param **.servers[16]**.dstLid 40
param **.servers[16].app.msgLength 4194304B
param **.servers[16].app.msg2msgGap 1ns
param **.servers[16].app.msgNum 5
param **.servers[16].**.on_average_throughput 1
param **.servers[16]**.startTime 0.005000
param **.servers[16]**.endTime 0.025000
param **.servers[16].gen.on_cc 1
param **.servers[39].sink.on_cc 1
param **.servers[16].sink.on_cc 1
param **.servers[39].gen.on_cc 1
param **.servers[39]**.on_utilization 1
param **.servers[123]**.dstLid 27
param **.servers[123].app.msgLength 4194304B
param **.servers[123].app.msg2msgGap 1ns
param **.servers[123].app.msgNum 5
param **.servers[123].**.on_average_throughput 1
param **.servers[123]**.startTime 0.005000
param **.servers[123]**.endTime 0.025000
param **.servers[123].gen.on_cc 1
param **.servers[26].sink.on_cc 1
param **.servers[123].sink.on_cc 1
param **.servers[26].gen.on_cc 1
param **.servers[26]**.on_utilization 1
param **.servers[56]**.dstLid 27
param **.servers[56].app.msgLength 4194304B
param **.servers[56].app.msg2msgGap 1ns
param **.servers[56].app.msgNum 5
param **.servers[56].**.on_average_throughput 1
param **.servers[56]**.startTime 0.005000
param **.servers[56]**.endTime 0.025000
param **.servers[56].gen.on_cc 1
param **.servers[26].sink.on_cc 1
param **.servers[56].sink.on_cc 1
param **.servers[26].gen.on_cc 1
param **.servers[26]**.on_utilization 1
param **.servers[0]**.dstLid 49
param **.servers[0].app.msgLength 4096B
param **.servers[0].app.msg2msgGap 50000ns
param **.servers[0].app.msgNum 200
param **.servers[0]**.startTime 0.015000
param **.servers[0]**.endTime 0.016000
param **.servers[2]**.dstLid 95
param **.servers[2].app.msgLength 4096B
param **.servers[2].app.msg2msgGap 50000ns
param **.servers[2].app.msgNum 200
param **.servers[2]**.startTime 0.007000
param **.servers[2]**.endTime 0.008000
param **.servers[4]**.dstLid 118
param **.servers[4].app.msgLength 4096B
param **.servers[4].app.msg2msgGap 50000ns
param **.servers[4].app.msgNum 200
param **.servers[4]**.startTime 0.017000
param **.servers[4]**.endTime 0.018000
param **.servers[5]**.dstLid 6
param **.servers[5].app.msgLength 4096B
param **.servers[5].app.msg2msgGap 50000ns
param **.servers[5].app.msgNum 200
param **.servers[5]**.startTime 0.011000
param **.servers[5]**.endTime 0.012000
param **.servers[6]**.dstLid 56
param **.servers[6].app.msgLength 4096B
param **.servers[6].app.msg2msgGap 50000ns
param **.servers[6].app.msgNum 200
param **.servers[6]**.startTime 0.007000
param **.servers[6]**.endTime 0.008000
param **.servers[7]**.dstLid 48
param **.servers[7].app.msgLength 4096B
param **.servers[7].app.msg2msgGap 50000ns
param **.servers[7].app.msgNum 200
param **.servers[7]**.startTime 0.013000
param **.servers[7]**.endTime 0.014000
param **.servers[8]**.dstLid 112
param **.servers[8].app.msgLength 4096B
param **.servers[8].app.msg2msgGap 50000ns
param **.servers[8].app.msgNum 200
param **.servers[8]**.startTime 0.017000
param **.servers[8]**.endTime 0.018000
param **.servers[9]**.dstLid 84
param **.servers[9].app.msgLength 4096B
param **.servers[9].app.msg2msgGap 50000ns
param **.servers[9].app.msgNum 200
param **.servers[9]**.startTime 0.015000
param **.servers[9]**.endTime 0.016000
param **.servers[12]**.dstLid 60
param **.servers[12].app.msgLength 4096B
param **.servers[12].app.msg2msgGap 50000ns
param **.servers[12].app.msgNum 200
param **.servers[12]**.startTime 0.009000
param **.servers[12]**.endTime 0.010000
param **.servers[13]**.dstLid 79
param **.servers[13].app.msgLength 4096B
param **.servers[13].app.msg2msgGap 50000ns
param **.servers[13].app.msgNum 200
param **.servers[13]**.startTime 0.017000
param **.servers[13]**.endTime 0.018000
param **.servers[14]**.dstLid 93
param **.servers[14].app.msgLength 4096B
param **.servers[14].app.msg2msgGap 50000ns
param **.servers[14].app.msgNum 200
param **.servers[14]**.startTime 0.019000
param **.servers[14]**.endTime 0.020000
param **.servers[17]**.dstLid 38
param **.servers[17].app.msgLength 4096B
param **.servers[17].app.msg2msgGap 50000ns
param **.servers[17].app.msgNum 200
param **.servers[17]**.startTime 0.017000
param **.servers[17]**.endTime 0.018000
param **.servers[18]**.dstLid 112
param **.servers[18].app.msgLength 4096B
param **.servers[18].app.msg2msgGap 50000ns
param **.servers[18].app.msgNum 200
param **.servers[18]**.startTime 0.007000
param **.servers[18]**.endTime 0.008000
param **.servers[19]**.dstLid 110
param **.servers[19].app.msgLength 4096B
param **.servers[19].app.msg2msgGap 50000ns
param **.servers[19].app.msgNum 200
param **.servers[19]**.startTime 0.009000
param **.servers[19]**.endTime 0.010000
param **.servers[20]**.dstLid 20
param **.servers[20].app.msgLength 4096B
param **.servers[20].app.msg2msgGap 50000ns
param **.servers[20].app.msgNum 200
param **.servers[20]**.startTime 0.007000
param **.servers[20]**.endTime 0.008000
param **.servers[21]**.dstLid 102
param **.servers[21].app.msgLength 4096B
param **.servers[21].app.msg2msgGap 50000ns
param **.servers[21].app.msgNum 200
param **.servers[21]**.startTime 0.011000
param **.servers[21]**.endTime 0.012000
param **.servers[22]**.dstLid 85
param **.servers[22].app.msgLength 4096B
param **.servers[22].app.msg2msgGap 50000ns
param **.servers[22].app.msgNum 200
param **.servers[22]**.startTime 0.009000
param **.servers[22]**.endTime 0.010000
param **.servers[23]**.dstLid 118
param **.servers[23].app.msgLength 4096B
param **.servers[23].app.msg2msgGap 50000ns
param **.servers[23].app.msgNum 200
param **.servers[23]**.startTime 0.017000
param **.servers[23]**.endTime 0.018000
param **.servers[24]**.dstLid 97
param **.servers[24].app.msgLength 4096B
param **.servers[24].app.msg2msgGap 50000ns
param **.servers[24].app.msgNum 200
param **.servers[24]**.startTime 0.009000
param **.servers[24]**.endTime 0.010000
param **.servers[27]**.dstLid 9
param **.servers[27].app.msgLength 4096B
param **.servers[27].app.msg2msgGap 50000ns
param **.servers[27].app.msgNum 200
param **.servers[27]**.startTime 0.019000
param **.servers[27]**.endTime 0.020000
param **.servers[28]**.dstLid 14
param **.servers[28].app.msgLength 4096B
param **.servers[28].app.msg2msgGap 50000ns
param **.servers[28].app.msgNum 200
param **.servers[28]**.startTime 0.015000
param **.servers[28]**.endTime 0.016000
param **.servers[29]**.dstLid 128
param **.servers[29].app.msgLength 4096B
param **.servers[29].app.msg2msgGap 50000ns
param **.servers[29].app.msgNum 200
param **.servers[29]**.startTime 0.011000
param **.servers[29]**.endTime 0.012000
param **.servers[30]**.dstLid 87
param **.servers[30].app.msgLength 4096B
param **.servers[30].app.msg2msgGap 50000ns
param **.servers[30].app.msgNum 200
param **.servers[30]**.startTime 0.009000
param **.servers[30]**.endTime 0.010000
param **.servers[32]**.dstLid 69
param **.servers[32].app.msgLength 4096B
param **.servers[32].app.msg2msgGap 50000ns
param **.servers[32].app.msgNum 200
param **.servers[32]**.startTime 0.021000
param **.servers[32]**.endTime 0.022000
param **.servers[34]**.dstLid 69
param **.servers[34].app.msgLength 4096B
param **.servers[34].app.msg2msgGap 50000ns
param **.servers[34].app.msgNum 200
param **.servers[34]**.startTime 0.017000
param **.servers[34]**.endTime 0.018000
param **.servers[35]**.dstLid 99
param **.servers[35].app.msgLength 4096B
param **.servers[35].app.msg2msgGap 50000ns
param **.servers[35].app.msgNum 200
param **.servers[35]**.startTime 0.013000
param **.servers[35]**.endTime 0.014000
param **.servers[36]**.dstLid 51
param **.servers[36].app.msgLength 4096B
param **.servers[36].app.msg2msgGap 50000ns
param **.servers[36].app.msgNum 200
param **.servers[36]**.startTime 0.011000
param **.servers[36]**.endTime 0.012000
param **.servers[37]**.dstLid 73
param **.servers[37].app.msgLength 4096B
param **.servers[37].app.msg2msgGap 50000ns
param **.servers[37].app.msgNum 200
param **.servers[37]**.startTime 0.013000
param **.servers[37]**.endTime 0.014000
param **.servers[38]**.dstLid 74
param **.servers[38].app.msgLength 4096B
param **.servers[38].app.msg2msgGap 50000ns
param **.servers[38].app.msgNum 200
param **.servers[38]**.startTime 0.015000
param **.servers[38]**.endTime 0.016000
param **.servers[41]**.dstLid 45
param **.servers[41].app.msgLength 4096B
param **.servers[41].app.msg2msgGap 50000ns
param **.servers[41].app.msgNum 200
param **.servers[41]**.startTime 0.013000
param **.servers[41]**.endTime 0.014000
param **.servers[43]**.dstLid 8
param **.servers[43].app.msgLength 4096B
param **.servers[43].app.msg2msgGap 50000ns
param **.servers[43].app.msgNum 200
param **.servers[43]**.startTime 0.011000
param **.servers[43]**.endTime 0.012000
param **.servers[44]**.dstLid 9
param **.servers[44].app.msgLength 4096B
param **.servers[44].app.msg2msgGap 50000ns
param **.servers[44].app.msgNum 200
param **.servers[44]**.startTime 0.009000
param **.servers[44]**.endTime 0.010000
param **.servers[45]**.dstLid 58
param **.servers[45].app.msgLength 4096B
param **.servers[45].app.msg2msgGap 50000ns
param **.servers[45].app.msgNum 200
param **.servers[45]**.startTime 0.015000
param **.servers[45]**.endTime 0.016000
param **.servers[46]**.dstLid 82
param **.servers[46].app.msgLength 4096B
param **.servers[46].app.msg2msgGap 50000ns
param **.servers[46].app.msgNum 200
param **.servers[46]**.startTime 0.011000
param **.servers[46]**.endTime 0.012000
param **.servers[47]**.dstLid 89
param **.servers[47].app.msgLength 4096B
param **.servers[47].app.msg2msgGap 50000ns
param **.servers[47].app.msgNum 200
param **.servers[47]**.startTime 0.011000
param **.servers[47]**.endTime 0.012000
param **.servers[48]**.dstLid 65
param **.servers[48].app.msgLength 4096B
param **.servers[48].app.msg2msgGap 50000ns
param **.servers[48].app.msgNum 200
param **.servers[48]**.startTime 0.007000
param **.servers[48]**.endTime 0.008000
param **.servers[49]**.dstLid 81
param **.servers[49].app.msgLength 4096B
param **.servers[49].app.msg2msgGap 50000ns
param **.servers[49].app.msgNum 200
param **.servers[49]**.startTime 0.015000
param **.servers[49]**.endTime 0.016000
param **.servers[50]**.dstLid 30
param **.servers[50].app.msgLength 4096B
param **.servers[50].app.msg2msgGap 50000ns
param **.servers[50].app.msgNum 200
param **.servers[50]**.startTime 0.019000
param **.servers[50]**.endTime 0.020000
param **.servers[51]**.dstLid 6
param **.servers[51].app.msgLength 4096B
param **.servers[51].app.msg2msgGap 50000ns
param **.servers[51].app.msgNum 200
param **.servers[51]**.startTime 0.017000
param **.servers[51]**.endTime 0.018000
param **.servers[52]**.dstLid 55
param **.servers[52].app.msgLength 4096B
param **.servers[52].app.msg2msgGap 50000ns
param **.servers[52].app.msgNum 200
param **.servers[52]**.startTime 0.007000
param **.servers[52]**.endTime 0.008000
param **.servers[54]**.dstLid 119
param **.servers[54].app.msgLength 4096B
param **.servers[54].app.msg2msgGap 50000ns
param **.servers[54].app.msgNum 200
param **.servers[54]**.startTime 0.019000
param **.servers[54]**.endTime 0.020000
param **.servers[55]**.dstLid 128
param **.servers[55].app.msgLength 4096B
param **.servers[55].app.msg2msgGap 50000ns
param **.servers[55].app.msgNum 200
param **.servers[55]**.startTime 0.017000
param **.servers[55]**.endTime 0.018000
param **.servers[57]**.dstLid 39
param **.servers[57].app.msgLength 4096B
param **.servers[57].app.msg2msgGap 50000ns
param **.servers[57].app.msgNum 200
param **.servers[57]**.startTime 0.009000
param **.servers[57]**.endTime 0.010000
param **.servers[58]**.dstLid 36
param **.servers[58].app.msgLength 4096B
param **.servers[58].app.msg2msgGap 50000ns
param **.servers[58].app.msgNum 200
param **.servers[58]**.startTime 0.015000
param **.servers[58]**.endTime 0.016000
param **.servers[59]**.dstLid 65
param **.servers[59].app.msgLength 4096B
param **.servers[59].app.msg2msgGap 50000ns
param **.servers[59].app.msgNum 200
param **.servers[59]**.startTime 0.019000
param **.servers[59]**.endTime 0.020000
param **.servers[60]**.dstLid 112
param **.servers[60].app.msgLength 4096B
param **.servers[60].app.msg2msgGap 50000ns
param **.servers[60].app.msgNum 200
param **.servers[60]**.startTime 0.015000
param **.servers[60]**.endTime 0.016000
param **.servers[63]**.dstLid 94
param **.servers[63].app.msgLength 4096B
param **.servers[63].app.msg2msgGap 50000ns
param **.servers[63].app.msgNum 200
param **.servers[63]**.startTime 0.021000
param **.servers[63]**.endTime 0.022000
param **.servers[64]**.dstLid 77
param **.servers[64].app.msgLength 4096B
param **.servers[64].app.msg2msgGap 50000ns
param **.servers[64].app.msgNum 200
param **.servers[64]**.startTime 0.011000
param **.servers[64]**.endTime 0.012000
param **.servers[65]**.dstLid 22
param **.servers[65].app.msgLength 4096B
param **.servers[65].app.msg2msgGap 50000ns
param **.servers[65].app.msgNum 200
param **.servers[65]**.startTime 0.009000
param **.servers[65]**.endTime 0.010000
param **.servers[66]**.dstLid 5
param **.servers[66].app.msgLength 4096B
param **.servers[66].app.msg2msgGap 50000ns
param **.servers[66].app.msgNum 200
param **.servers[66]**.startTime 0.015000
param **.servers[66]**.endTime 0.016000
param **.servers[68]**.dstLid 104
param **.servers[68].app.msgLength 4096B
param **.servers[68].app.msg2msgGap 50000ns
param **.servers[68].app.msgNum 200
param **.servers[68]**.startTime 0.011000
param **.servers[68]**.endTime 0.012000
param **.servers[71]**.dstLid 73
param **.servers[71].app.msgLength 4096B
param **.servers[71].app.msg2msgGap 50000ns
param **.servers[71].app.msgNum 200
param **.servers[71]**.startTime 0.011000
param **.servers[71]**.endTime 0.012000
param **.servers[72]**.dstLid 96
param **.servers[72].app.msgLength 4096B
param **.servers[72].app.msg2msgGap 50000ns
param **.servers[72].app.msgNum 200
param **.servers[72]**.startTime 0.011000
param **.servers[72]**.endTime 0.012000
param **.servers[73]**.dstLid 78
param **.servers[73].app.msgLength 4096B
param **.servers[73].app.msg2msgGap 50000ns
param **.servers[73].app.msgNum 200
param **.servers[73]**.startTime 0.011000
param **.servers[73]**.endTime 0.012000
param **.servers[74]**.dstLid 101
param **.servers[74].app.msgLength 4096B
param **.servers[74].app.msg2msgGap 50000ns
param **.servers[74].app.msgNum 200
param **.servers[74]**.startTime 0.013000
param **.servers[74]**.endTime 0.014000
param **.servers[76]**.dstLid 114
param **.servers[76].app.msgLength 4096B
param **.servers[76].app.msg2msgGap 50000ns
param **.servers[76].app.msgNum 200
param **.servers[76]**.startTime 0.013000
param **.servers[76]**.endTime 0.014000
param **.servers[77]**.dstLid 78
param **.servers[77].app.msgLength 4096B
param **.servers[77].app.msg2msgGap 50000ns
param **.servers[77].app.msgNum 200
param **.servers[77]**.startTime 0.017000
param **.servers[77]**.endTime 0.018000
param **.servers[78]**.dstLid 81
param **.servers[78].app.msgLength 4096B
param **.servers[78].app.msg2msgGap 50000ns
param **.servers[78].app.msgNum 200
param **.servers[78]**.startTime 0.019000
param **.servers[78]**.endTime 0.020000
param **.servers[79]**.dstLid 83
param **.servers[79].app.msgLength 4096B
param **.servers[79].app.msg2msgGap 50000ns
param **.servers[79].app.msgNum 200
param **.servers[79]**.startTime 0.015000
param **.servers[79]**.endTime 0.016000
param **.servers[80]**.dstLid 120
param **.servers[80].app.msgLength 4096B
param **.servers[80].app.msg2msgGap 50000ns
param **.servers[80].app.msgNum 200
param **.servers[80]**.startTime 0.021000
param **.servers[80]**.endTime 0.022000
param **.servers[81]**.dstLid 56
param **.servers[81].app.msgLength 4096B
param **.servers[81].app.msg2msgGap 50000ns
param **.servers[81].app.msgNum 200
param **.servers[81]**.startTime 0.009000
param **.servers[81]**.endTime 0.010000
param **.servers[82]**.dstLid 119
param **.servers[82].app.msgLength 4096B
param **.servers[82].app.msg2msgGap 50000ns
param **.servers[82].app.msgNum 200
param **.servers[82]**.startTime 0.007000
param **.servers[82]**.endTime 0.008000
param **.servers[83]**.dstLid 25
param **.servers[83].app.msgLength 4096B
param **.servers[83].app.msg2msgGap 50000ns
param **.servers[83].app.msgNum 200
param **.servers[83]**.startTime 0.017000
param **.servers[83]**.endTime 0.018000
param **.servers[84]**.dstLid 9
param **.servers[84].app.msgLength 4096B
param **.servers[84].app.msg2msgGap 50000ns
param **.servers[84].app.msgNum 200
param **.servers[84]**.startTime 0.009000
param **.servers[84]**.endTime 0.010000
param **.servers[86]**.dstLid 110
param **.servers[86].app.msgLength 4096B
param **.servers[86].app.msg2msgGap 50000ns
param **.servers[86].app.msgNum 200
param **.servers[86]**.startTime 0.017000
param **.servers[86]**.endTime 0.018000
param **.servers[87]**.dstLid 89
param **.servers[87].app.msgLength 4096B
param **.servers[87].app.msg2msgGap 50000ns
param **.servers[87].app.msgNum 200
param **.servers[87]**.startTime 0.011000
param **.servers[87]**.endTime 0.012000
param **.servers[88]**.dstLid 10
param **.servers[88].app.msgLength 4096B
param **.servers[88].app.msg2msgGap 50000ns
param **.servers[88].app.msgNum 200
param **.servers[88]**.startTime 0.021000
param **.servers[88]**.endTime 0.022000
param **.servers[90]**.dstLid 30
param **.servers[90].app.msgLength 4096B
param **.servers[90].app.msg2msgGap 50000ns
param **.servers[90].app.msgNum 200
param **.servers[90]**.startTime 0.007000
param **.servers[90]**.endTime 0.008000
param **.servers[92]**.dstLid 44
param **.servers[92].app.msgLength 4096B
param **.servers[92].app.msg2msgGap 50000ns
param **.servers[92].app.msgNum 200
param **.servers[92]**.startTime 0.013000
param **.servers[92]**.endTime 0.014000
param **.servers[93]**.dstLid 126
param **.servers[93].app.msgLength 4096B
param **.servers[93].app.msg2msgGap 50000ns
param **.servers[93].app.msgNum 200
param **.servers[93]**.startTime 0.021000
param **.servers[93]**.endTime 0.022000
param **.servers[94]**.dstLid 91
param **.servers[94].app.msgLength 4096B
param **.servers[94].app.msg2msgGap 50000ns
param **.servers[94].app.msgNum 200
param **.servers[94]**.startTime 0.013000
param **.servers[94]**.endTime 0.014000
param **.servers[95]**.dstLid 10
param **.servers[95].app.msgLength 4096B
param **.servers[95].app.msg2msgGap 50000ns
param **.servers[95].app.msgNum 200
param **.servers[95]**.startTime 0.019000
param **.servers[95]**.endTime 0.020000
param **.servers[96]**.dstLid 29
param **.servers[96].app.msgLength 4096B
param **.servers[96].app.msg2msgGap 50000ns
param **.servers[96].app.msgNum 200
param **.servers[96]**.startTime 0.017000
param **.servers[96]**.endTime 0.018000
param **.servers[98]**.dstLid 127
param **.servers[98].app.msgLength 4096B
param **.servers[98].app.msg2msgGap 50000ns
param **.servers[98].app.msgNum 200
param **.servers[98]**.startTime 0.007000
param **.servers[98]**.endTime 0.008000
param **.servers[99]**.dstLid 53
param **.servers[99].app.msgLength 4096B
param **.servers[99].app.msg2msgGap 50000ns
param **.servers[99].app.msgNum 200
param **.servers[99]**.startTime 0.019000
param **.servers[99]**.endTime 0.020000
param **.servers[100]**.dstLid 47
param **.servers[100].app.msgLength 4096B
param **.servers[100].app.msg2msgGap 50000ns
param **.servers[100].app.msgNum 200
param **.servers[100]**.startTime 0.013000
param **.servers[100]**.endTime 0.014000
param **.servers[101]**.dstLid 6
param **.servers[101].app.msgLength 4096B
param **.servers[101].app.msg2msgGap 50000ns
param **.servers[101].app.msgNum 200
param **.servers[101]**.startTime 0.015000
param **.servers[101]**.endTime 0.016000
param **.servers[102]**.dstLid 50
param **.servers[102].app.msgLength 4096B
param **.servers[102].app.msg2msgGap 50000ns
param **.servers[102].app.msgNum 200
param **.servers[102]**.startTime 0.009000
param **.servers[102]**.endTime 0.010000
param **.servers[103]**.dstLid 13
param **.servers[103].app.msgLength 4096B
param **.servers[103].app.msg2msgGap 50000ns
param **.servers[103].app.msgNum 200
param **.servers[103]**.startTime 0.017000
param **.servers[103]**.endTime 0.018000
param **.servers[106]**.dstLid 122
param **.servers[106].app.msgLength 4096B
param **.servers[106].app.msg2msgGap 50000ns
param **.servers[106].app.msgNum 200
param **.servers[106]**.startTime 0.019000
param **.servers[106]**.endTime 0.020000
param **.servers[107]**.dstLid 101
param **.servers[107].app.msgLength 4096B
param **.servers[107].app.msg2msgGap 50000ns
param **.servers[107].app.msgNum 200
param **.servers[107]**.startTime 0.021000
param **.servers[107]**.endTime 0.022000
param **.servers[108]**.dstLid 21
param **.servers[108].app.msgLength 4096B
param **.servers[108].app.msg2msgGap 50000ns
param **.servers[108].app.msgNum 200
param **.servers[108]**.startTime 0.021000
param **.servers[108]**.endTime 0.022000
param **.servers[109]**.dstLid 6
param **.servers[109].app.msgLength 4096B
param **.servers[109].app.msg2msgGap 50000ns
param **.servers[109].app.msgNum 200
param **.servers[109]**.startTime 0.009000
param **.servers[109]**.endTime 0.010000
param **.servers[110]**.dstLid 5
param **.servers[110].app.msgLength 4096B
param **.servers[110].app.msg2msgGap 50000ns
param **.servers[110].app.msgNum 200
param **.servers[110]**.startTime 0.017000
param **.servers[110]**.endTime 0.018000
param **.servers[111]**.dstLid 44
param **.servers[111].app.msgLength 4096B
param **.servers[111].app.msg2msgGap 50000ns
param **.servers[111].app.msgNum 200
param **.servers[111]**.startTime 0.011000
param **.servers[111]**.endTime 0.012000
param **.servers[112]**.dstLid 35
param **.servers[112].app.msgLength 4096B
param **.servers[112].app.msg2msgGap 50000ns
param **.servers[112].app.msgNum 200
param **.servers[112]**.startTime 0.021000
param **.servers[112]**.endTime 0.022000
param **.servers[113]**.dstLid 31
param **.servers[113].app.msgLength 4096B
param **.servers[113].app.msg2msgGap 50000ns
param **.servers[113].app.msgNum 200
param **.servers[113]**.startTime 0.021000
param **.servers[113]**.endTime 0.022000
param **.servers[117]**.dstLid 66
param **.servers[117].app.msgLength 4096B
param **.servers[117].app.msg2msgGap 50000ns
param **.servers[117].app.msgNum 200
param **.servers[117]**.startTime 0.007000
param **.servers[117]**.endTime 0.008000
param **.servers[118]**.dstLid 5
param **.servers[118].app.msgLength 4096B
param **.servers[118].app.msg2msgGap 50000ns
param **.servers[118].app.msgNum 200
param **.servers[118]**.startTime 0.013000
param **.servers[118]**.endTime 0.014000
param **.servers[119]**.dstLid 30
param **.servers[119].app.msgLength 4096B
param **.servers[119].app.msg2msgGap 50000ns
param **.servers[119].app.msgNum 200
param **.servers[119]**.startTime 0.011000
param **.servers[119]**.endTime 0.012000
param **.servers[121]**.dstLid 77
param **.servers[121].app.msgLength 4096B
param **.servers[121].app.msg2msgGap 50000ns
param **.servers[121].app.msgNum 200
param **.servers[121]**.startTime 0.017000
param **.servers[121]**.endTime 0.018000
param **.servers[122]**.dstLid 37
param **.servers[122].app.msgLength 4096B
param **.servers[122].app.msg2msgGap 50000ns
param **.servers[122].app.msgNum 200
param **.servers[122]**.startTime 0.021000
param **.servers[122]**.endTime 0.022000
param **.servers[124]**.dstLid 45
param **.servers[124].app.msgLength 4096B
param **.servers[124].app.msg2msgGap 50000ns
param **.servers[124].app.msgNum 200
param **.servers[124]**.startTime 0.007000
param **.servers[124]**.endTime 0.008000
param **.servers[125]**.dstLid 83
param **.servers[125].app.msgLength 4096B
param **.servers[125].app.msg2msgGap 50000ns
param **.servers[125].app.msgNum 200
param **.servers[125]**.startTime 0.009000
param **.servers[125]**.endTime 0.010000
param **.servers[126]**.dstLid 102
param **.servers[126].app.msgLength 4096B
param **.servers[126].app.msg2msgGap 50000ns
param **.servers[126].app.msgNum 200
param **.servers[126]**.startTime 0.009000
param **.servers[126]**.endTime 0.010000
param **.servers[127]**.dstLid 24
param **.servers[127].app.msgLength 4096B
param **.servers[127].app.msg2msgGap 50000ns
param **.servers[127].app.msgNum 200
param **.servers[127]**.startTime 0.019000
param **.servers[127]**.endTime 0.020000
param **.**switches[*]**.fdbsVecFile "\"examples/evaluation_fattree128/fat_tree_128.fdbs\""
param **.startStatCol 100us
param **.dstMode "\"param\""
param **.app.dstSeqVecFile "\"\""
param **.app.dstSeqVecIdx 0
param **.msgLenMode "\"param\""
param **.msgMtuLen 2048B
param **.msgLenSet "\"4096 4096 4096\""
param **.msgLenProb "\"1 1 1 1\""
param **.msgSQ 0
param **.maxContPkts 10
param **.popDlyPerByte 0.25ns
param **.genDlyPerByte 0.25ns
param **.maxQueuedPerVL 10
param **.flit2FlitGap 0.001ns
param **.pkt2PktGap 0.001ns
param **.timeStep_us 49us
param **.CCT_Timer 10us
param **.vlarb.markrate 3
param **ibuf.maxBeingSent 1
param **ibuf.totalBufferSize 1000
param **.servers[*]**.ibuf.maxStatic* 32
param **.**switches[*]**.subport[*].ibuf.maxStatic* 32
param **.**switches[*]**.obuf.size 5
param **.servers[*]**.obuf.size 5
param **.pktFwdType "\"Pktfwd\""
param **.servers[*]**.vlarb.busWidth 16B
param **.servers[*]**.vlarb.coreFreq 1000MHz
param **.**switches[*]**.vlarb.coreFreq 1200MHz
param **.**switches[*]**.vlarb.busWidth 24B

vector 0 fat_tree_128.servers[62].sink "latency of Large message" ETV
vector 1 fat_tree_128.servers[89].sink "latency of Large message" ETV
vector 2 fat_tree_128.servers[15].sink "latency of Large message" ETV
vector 3 fat_tree_128.servers[54].sink "Latency of each message" ETV
vector 4 fat_tree_128.servers[19].sink "Latency of each message" ETV
vector 5 fat_tree_128.servers[55].sink "Latency of each message" ETV
vector 6 fat_tree_128.servers[111].sink "Latency of each message" ETV
vector 7 fat_tree_128.servers[29].sink "Latency of each message" ETV
vector 8 fat_tree_128.servers[44].sink "Latency of each message" ETV
vector 9 fat_tree_128.servers[64].sink "Latency of each message" ETV
vector 10 fat_tree_128.servers[94].sink "Latency of each message" ETV
vector 11 fat_tree_128.servers[118].sink "Latency of each message" ETV
vector 12 fat_tree_128.servers[65].sink "Latency of each message" ETV
vector 13 fat_tree_128.servers[126].sink "Latency of each message" ETV
vector 14 fat_tree_128.servers[70].sink "latency of Large message" ETV
vector 15 fat_tree_128.servers[104].sink "latency of Large message" ETV
vector 16 fat_tree_128.servers[26].sink "latency of Large message" ETV
vector 17 fat_tree_128.servers[86].sink "Latency of each message" ETV
vector 18 fat_tree_128.servers[21].sink "Latency of each message" ETV
vector 19 fat_tree_128.servers[59].sink "Latency of each message" ETV
vector 20 fat_tree_128.servers[8].sink "Latency of each message" ETV
vector 21 fat_tree_128.servers[49].sink "Latency of each message" ETV
vector 22 fat_tree_128.servers[101].sink "Latency of each message" ETV
vector 23 fat_tree_128.servers[38].sink "Latency of each message" ETV
vector 24 fat_tree_128.servers[84].sink "Latency of each message" ETV
vector 25 fat_tree_128.servers[5].sink "Latency of each message" ETV
vector 26 fat_tree_128.servers[109].sink "Latency of each message" ETV
vector 27 fat_tree_128.servers[82].sink "Latency of each message" ETV
vector 28 fat_tree_128.servers[96].sink "Latency of each message" ETV
vector 29 fat_tree_128.servers[116].sink "latency of Large message" ETV
vector 30 fat_tree_128.servers[39].sink "latency of Large message" ETV
vector 31 fat_tree_128.servers[76].sink "Latency of each message" ETV
vector 32 fat_tree_128.servers[72].sink "Latency of each message" ETV
vector 33 fat_tree_128.servers[77].sink "Latency of each message" ETV
vector 34 fat_tree_128.servers[127].sink "Latency of each message" ETV
vector 35 fat_tree_128.servers[50].sink "Latency of each message" ETV
vector 36 fat_tree_128.servers[81].sink "Latency of each message" ETV
vector 37 fat_tree_128.servers[43].sink "Latency of each message" ETV
vector 38 fat_tree_128.servers[88].sink "Latency of each message" ETV
vector 39 fat_tree_128.servers[7].sink "Latency of each message" ETV
vector 40 fat_tree_128.servers[103].sink "Latency of each message" ETV
vector 41 fat_tree_128.servers[95].sink "Latency of each message" ETV
vector 42 fat_tree_128.servers[90].sink "Latency of each message" ETV
vector 43 fat_tree_128.servers[98].sink "Latency of each message" ETV
vector 44 fat_tree_128.servers[113].sink "Latency of each message" ETV
vector 45 fat_tree_128.servers[46].sink "Latency of each message" ETV
vector 46 fat_tree_128.servers[4].sink "Latency of each message" ETV
vector 47 fat_tree_128.servers[100].sink "Latency of each message" ETV
vector 48 fat_tree_128.servers[47].sink "Latency of each message" ETV
vector 49 fat_tree_128.servers[48].sink "Latency of each message" ETV
vector 50 fat_tree_128.servers[83].sink "Latency of each message" ETV
vector 51 fat_tree_128.servers[13].sink "Latency of each message" ETV
vector 52 fat_tree_128.servers[73].sink "Latency of each message" ETV
vector 53 fat_tree_128.servers[80].sink "Latency of each message" ETV
vector 54 fat_tree_128.servers[57].sink "Latency of each message" ETV
vector 55 fat_tree_128.servers[35].sink "Latency of each message" ETV
vector 56 fat_tree_128.servers[78].sink "Latency of each message" ETV
vector 57 fat_tree_128.servers[37].sink "Latency of each message" ETV
vector 58 fat_tree_128.servers[24].sink "Latency of each message" ETV
vector 59 fat_tree_128.servers[117].sink "Latency of each message" ETV
vector 60 fat_tree_128.servers[68].sink "Latency of each message" ETV
vector 61 fat_tree_128.servers[12].sink "Latency of each message" ETV
vector 62 fat_tree_128.servers[28].sink "Latency of each message" ETV
vector 63 fat_tree_128.servers[9].sink "Latency of each message" ETV
vector 64 fat_tree_128.servers[121].sink "Latency of each message" ETV
vector 65 fat_tree_128.servers[23].sink "Latency of each message" ETV
vector 66 fat_tree_128.servers[52].sink "Latency of each message" ETV
vector 67 fat_tree_128.servers[92].sink "Latency of each message" ETV
vector 68 fat_tree_128.servers[93].sink "Latency of each message" ETV
vector 69 fat_tree_128.servers[119].sink "Latency of each message" ETV
vector 70 fat_tree_128.servers[36].sink "Latency of each message" ETV
vector 71 fat_tree_128.servers[125].sink "Latency of each message" ETV
vector 72 fat_tree_128.servers[20].sink "Latency of each message" ETV
vector 73 fat_tree_128.servers[34].sink "Latency of each message" ETV
vector 74 fat_tree_128.servers[30].sink "Latency of each message" ETV
0	4433056	0.006249932817	0.001249419817
0	6620448	0.007350860926	0.00110428007
0	9049615	0.008498205066	0.001149181392
0	11467875	0.009624341032	0.001126127966
0	13938254	0.010764919654	0.001140582706
1	4732059	0.006397608089	0.001397095089
1	7191496	0.007619488521	0.001221492877
1	9703911	0.008804178475	0.001186374156
1	12400977	0.010048137106	0.001243941381
1	15089667	0.011329866849	0.001281679907
2	5447811	0.006779593828	0.001779080828
2	8050457	0.008025149297	0.003024636297
2	9919639	0.008901389976	0.002122763276
2	12695203	0.010187767692	0.002163864871
2	14596484	0.011087589716	0.00218593833
2	17056372	0.012377186171	0.002189848631
2	18750965	0.013272602576	0.002184536236
2	21242290	0.01457758882	0.002200646502
2	22957610	0.015457261263	0.0021840623
2	24758053	0.016391006757	0.001813782209
3	5996277	0.007051124	6.12e-07
3	6101326	0.007101636	6.12e-07
3	6208035	0.00715215	6.14e-07
3	6317067	0.00720266	6.12e-07
3	6423509	0.007253172	6.12e-07
3	6525691	0.007303686	6.14e-07
3	6628637	0.007354196	6.12e-07
3	6734245	0.007404708	6.12e-07
3	6844226	0.007455222	6.14e-07
3	6952653	0.007505732	6.12e-07
3	7058574	0.007556244	6.12e-07
3	7163735	0.007606758	6.14e-07
3	7270094	0.007657268	6.12e-07
3	7381125	0.00770778	6.12e-07
3	7493728	0.007758294	6.14e-07
3	7598113	0.007808804	6.12e-07
3	7698477	0.007859316	6.12e-07
3	7804415	0.00790983	6.14e-07
3	7912777	0.00796034	6.12e-07
3	8019687	0.008010852	6.12e-07
3	8125903	0.008061366	6.14e-07
3	8234780	0.008111876	6.12e-07
3	8340171	0.008162388	6.12e-07
3	8449157	0.008212902	6.14e-07
3	8559651	0.008263412	6.12e-07
3	8668826	0.008313924	6.12e-07
3	8775933	0.008364438	6.14e-07
3	8877496	0.008414948	6.12e-07
3	8980006	0.00846546	6.12e-07
3	9088964	0.008515974	6.14e-07
3	9194972	0.008566484	6.12e-07
3	9305467	0.008616996	6.12e-07
3	9417043	0.00866751	6.14e-07
3	9521319	0.00871802	6.12e-07
3	9625435	0.008768532	6.12e-07
3	9738831	0.008819046	6.14e-07
3	9850191	0.008869556	6.12e-07
3	9957319	0.008920068	6.12e-07
3	10058979	0.008970582	6.14e-07
3	10160118	0.009021092	6.12e-07
3	10269848	0.009071604	6.12e-07
3	10388521	0.009122118	6.14e-07
3	10496685	0.009172628	6.12e-07
3	10602853	0.00922314	6.12e-07
3	10709936	0.009273654	6.14e-07
3	10818715	0.009324164	6.12e-07
3	10933219	0.009374676	6.12e-07
3	11045551	0.00942519	6.14e-07
3	11157592	0.0094757	6.12e-07
3	11261765	0.009526212	6.12e-07
3	11367985	0.009576726	6.14e-07
3	11475610	0.009627236	6.12e-07
3	11583409	0.009677748	6.12e-07
3	11697983	0.009728262	6.14e-07
3	11808349	0.009778772	6.12e-07
3	11919981	0.009829284	6.12e-07
3	12032689	0.009879798	6.14e-07
3	12141639	0.009930308	6.12e-07
3	12252508	0.00998082	6.12e-07
3	12365217	0.010031334	6.14e-07
3	12472398	0.010081844	6.12e-07
3	12575877	0.010132356	6.12e-07
3	12683389	0.01018287	6.14e-07
3	12795150	0.01023338	6.12e-07
3	12905790	0.010283892	6.12e-07
3	13020480	0.010334406	6.14e-07
3	13131996	0.010384916	6.12e-07
3	13240038	0.010435428	6.12e-07
3	13348876	0.010485942	6.14e-07
3	13461781	0.010536452	6.12e-07
3	13571524	0.010586964	6.12e-07
3	13678531	0.010637478	6.14e-07
3	13778749	0.010687988	6.12e-07
3	13882229	0.0107385	6.12e-07
3	13989005	0.010789014	6.14e-07
3	14093691	0.010839524	6.12e-07
3	14195588	0.010890036	6.12e-07
3	14300273	0.01094055	6.14e-07
3	14400237	0.01099106	6.12e-07
3	14501438	0.011041572	6.12e-07
3	14608135	0.011092086	6.14e-07
3	14708919	0.011142596	6.12e-07
3	14808524	0.011193108	6.12e-07
3	14914217	0.011243622	6.14e-07
3	15015525	0.011294132	6.12e-07
3	15113456	0.011344644	6.12e-07
3	15208263	0.011395158	6.14e-07
3	15304824	0.011445668	6.12e-07
3	15404161	0.01149618	6.12e-07
3	15504609	0.011546694	6.14e-07
3	15597074	0.011597204	6.12e-07
3	15686022	0.011647716	6.12e-07
3	15783981	0.01169823	6.14e-07
3	15879109	0.01174874	6.12e-07
3	15971217	0.011799252	6.12e-07
3	16067732	0.011849766	6.14e-07
3	16158982	0.011900276	6.12e-07
3	16251279	0.011950788	6.12e-07
3	16351003	0.012001302	6.14e-07
3	16450228	0.012051812	6.12e-07
3	16545434	0.012102324	6.12e-07
3	16640726	0.012152838	6.14e-07
3	16735010	0.012203348	6.12e-07
3	16827861	0.01225386	6.12e-07
3	16919181	0.012304372	6.12e-07
3	17012389	0.012354884	6.12e-07
3	17111014	0.012405396	6.12e-07
3	17202882	0.012455908	6.12e-07
3	17296326	0.01250642	6.12e-07
3	17392720	0.012556932	6.12e-07
3	17493843	0.012607444	6.12e-07
3	17595561	0.012657956	6.12e-07
3	17685239	0.012708468	6.12e-07
3	17775295	0.01275898	6.12e-07
3	17868626	0.012809492	6.12e-07
3	17962278	0.012860004	6.12e-07
3	18056010	0.012910516	6.12e-07
3	18153645	0.012961028	6.12e-07
3	18245792	0.01301154	6.12e-07
3	18341765	0.013062052	6.12e-07
3	18444141	0.013112564	6.12e-07
3	18545160	0.013163076	6.12e-07
3	18641651	0.013213588	6.12e-07
3	18736050	0.0132641	6.12e-07
3	18831023	0.013314612	6.12e-07
3	18926065	0.013365124	6.12e-07
3	19022338	0.013415636	6.12e-07
3	19115043	0.013466148	6.12e-07
3	19213455	0.01351666	6.12e-07
3	19312304	0.013567172	6.12e-07
3	19407439	0.013617684	6.12e-07
3	19505010	0.013668196	6.12e-07
3	19606491	0.013718708	6.12e-07
3	19704977	0.01376922	6.12e-07
3	19799897	0.013819732	6.12e-07
3	19896640	0.013870244	6.12e-07
3	19986598	0.013920756	6.12e-07
3	20079591	0.013971268	6.12e-07
3	20179321	0.01402178	6.12e-07
3	20280662	0.014072292	6.12e-07
3	20378269	0.014122804	6.12e-07
3	20471279	0.014173316	6.12e-07
3	20566333	0.014223828	6.12e-07
3	20670371	0.01427434	6.12e-07
3	20772593	0.014324852	6.12e-07
3	20864507	0.014375364	6.12e-07
3	20956157	0.014425876	6.12e-07
3	21054105	0.014476388	6.12e-07
3	21147419	0.0145269	6.12e-07
3	21241794	0.014577412	6.12e-07
3	21341056	0.014627924	6.12e-07
3	21442440	0.014678436	6.12e-07
3	21536664	0.014728948	6.12e-07
3	21633808	0.01477946	6.12e-07
3	21733507	0.014829972	6.12e-07
3	21832225	0.014880484	6.12e-07
3	21930756	0.014930996	6.12e-07
3	22026154	0.014981508	6.12e-07
3	22118076	0.01503202	6.12e-07
3	22211157	0.015082532	6.12e-07
3	22309096	0.015133044	6.12e-07
3	22412429	0.015183556	6.12e-07
3	22517749	0.015234068	6.12e-07
3	22611176	0.01528458	6.12e-07
3	22708821	0.015335092	6.12e-07
3	22816242	0.015385604	6.12e-07
3	22917194	0.015436116	6.12e-07
3	23010501	0.015486628	6.12e-07
3	23104186	0.01553714	6.12e-07
3	23198990	0.015587652	6.12e-07
3	23294420	0.015638164	6.12e-07
3	23391496	0.015688676	6.12e-07
3	23489757	0.015739188	6.12e-07
3	23593682	0.0157897	6.12e-07
3	23695480	0.015840212	6.12e-07
3	23789196	0.015890724	6.12e-07
3	23882315	0.015941236	6.12e-07
3	23981489	0.015991748	6.12e-07
3	24077750	0.01604226	6.12e-07
3	24175576	0.016092772	6.12e-07
3	24275679	0.016143284	6.12e-07
3	24370182	0.016193796	6.12e-07
3	24462976	0.016244308	6.12e-07
3	24565528	0.01629482	6.12e-07
3	24667333	0.016345332	6.12e-07
3	24766084	0.016395844	6.12e-07
3	24855223	0.016446356	6.12e-07
3	24942189	0.016496868	6.12e-07
3	25034332	0.01654738	6.12e-07
3	25128786	0.016597892	6.12e-07
3	25213429	0.016648404	6.12e-07
3	25297695	0.016698916	6.12e-07
3	25385820	0.016749428	6.12e-07
3	25471185	0.01679994	6.12e-07
3	25551268	0.016850452	6.12e-07
3	25637390	0.016900964	6.12e-07
3	25724671	0.016951476	6.12e-07
3	25810889	0.017001988	6.12e-07
3	25895173	0.0170525	6.12e-07
3	25975066	0.017103012	6.12e-07
4	5996813	0.007051324	8.12e-07
4	6101888	0.007101836	8.12e-07
4	6208621	0.00715235	8.14e-07
4	6317586	0.00720286	8.12e-07
4	6424159	0.007253372	8.12e-07
4	6526235	0.007303886	8.14e-07
4	6629216	0.007354396	8.12e-07
4	6734817	0.007404908	8.12e-07
4	6844842	0.007455422	8.14e-07
4	6953311	0.007505932	8.12e-07
4	7059120	0.007556444	8.12e-07
4	7164438	0.007606958	8.14e-07
4	7270668	0.007657468	8.12e-07
4	7381709	0.00770798	8.12e-07
4	7494348	0.007758494	8.14e-07
4	7598664	0.007809004	8.12e-07
4	7699049	0.007859516	8.12e-07
4	7805174	0.00791003	8.14e-07
4	7913270	0.00796054	8.12e-07
4	8020264	0.008011052	8.12e-07
4	8126532	0.008061566	8.14e-07
4	8235324	0.008112076	8.12e-07
4	8340805	0.008162588	8.12e-07
4	8449804	0.008213102	8.14e-07
4	8560217	0.008263612	8.12e-07
4	8669459	0.008314124	8.12e-07
4	8776562	0.008364638	8.14e-07
4	8878096	0.008415148	8.12e-07
4	8980620	0.00846566	8.12e-07
4	9089579	0.008516174	8.14e-07
4	9195533	0.008566684	8.12e-07
4	9306076	0.008617196	8.12e-07
4	9417877	0.00866771	8.14e-07
4	9521910	0.00871822	8.12e-07
4	9626054	0.008768732	8.12e-07
4	9739596	0.008819246	8.14e-07
4	9850730	0.008869756	8.12e-07
4	9957939	0.008920268	8.12e-07
4	10059684	0.008970782	8.14e-07
4	10160751	0.009021292	8.12e-07
4	10270528	0.009071804	8.12e-07
4	10389196	0.009122318	8.14e-07
4	10497307	0.009172828	8.12e-07
4	10603490	0.00922334	8.12e-07
4	10710682	0.009273854	8.14e-07
4	10819307	0.009324364	8.12e-07
4	10933776	0.009374876	8.12e-07
4	11046209	0.00942539	8.14e-07
4	11158143	0.0094759	8.12e-07
4	11262289	0.009526412	8.12e-07
4	11368763	0.009576926	8.14e-07
4	11476234	0.009627436	8.12e-07
4	11583999	0.009677948	8.12e-07
4	11698681	0.009728462	8.14e-07
4	11808980	0.009778972	8.12e-07
4	11920519	0.009829484	8.12e-07
4	12033404	0.009879998	8.14e-07
4	12142250	0.009930508	8.12e-07
4	12253116	0.00998102	8.12e-07
4	12365934	0.010031534	8.14e-07
4	12472989	0.010082044	8.12e-07
4	12576423	0.010132556	8.12e-07
4	12684170	0.01018307	8.14e-07
4	12795782	0.01023358	8.12e-07
4	12906321	0.010284092	8.12e-07
4	13021293	0.010334606	8.14e-07
4	13132468	0.010385116	8.12e-07
4	13240622	0.010435628	8.12e-07
4	13349636	0.010486142	8.14e-07
4	13462297	0.010536652	8.12e-07
4	13572092	0.010587164	8.12e-07
4	13679227	0.010637678	8.14e-07
4	13779318	0.010688188	8.12e-07
4	13882863	0.0107387	8.12e-07
4	13989718	0.010789214	8.14e-07
4	14094283	0.010839724	8.12e-07
4	14196065	0.010890236	8.12e-07
4	14300870	0.01094075	8.14e-07
4	14400817	0.01099126	8.12e-07
4	14501996	0.011041772	8.12e-07
4	14608997	0.011092286	8.14e-07
4	14709445	0.011142796	8.12e-07
4	14809083	0.011193308	8.12e-07
4	14914929	0.011243822	8.14e-07
4	15016096	0.011294332	8.12e-07
4	15113929	0.011344844	8.12e-07
4	15209011	0.011395358	8.14e-07
4	15305280	0.011445868	8.12e-07
4	15404753	0.01149638	8.12e-07
4	15505324	0.011546894	8.14e-07
4	15597565	0.011597404	8.12e-07
4	15686540	0.011647916	8.12e-07
4	15784649	0.01169843	8.14e-07
4	15879585	0.01174894	8.12e-07
4	15971615	0.011799452	8.12e-07
4	16068387	0.011849966	8.14e-07
4	16159592	0.011900476	8.12e-07
4	16251787	0.011950988	8.12e-07
4	16351807	0.012001502	8.14e-07
4	16450673	0.012052012	8.12e-07
4	16545960	0.012102524	8.12e-07
4	16641433	0.012153038	8.14e-07
4	16735576	0.012203548	8.12e-07
4	16828363	0.01225406	8.12e-07
4	16921862	0.012304574	8.14e-07
4	17012995	0.012355084	8.12e-07
4	17111542	0.012405596	8.12e-07
4	17205678	0.01245611	8.14e-07
4	17296826	0.01250662	8.12e-07
4	17393282	0.012557132	8.12e-07
4	17496599	0.012607646	8.14e-07
4	17596038	0.012658156	8.12e-07
4	17685686	0.012708668	8.12e-07
4	17778019	0.012759182	8.14e-07
4	17869139	0.012809692	8.12e-07
4	17962733	0.012860204	8.12e-07
4	18058676	0.012910718	8.14e-07
4	18154156	0.012961228	8.12e-07
4	18246326	0.01301174	8.12e-07
4	18344518	0.013062254	8.14e-07
4	18444675	0.013112764	8.12e-07
4	18545652	0.013163276	8.12e-07
4	18644404	0.01321379	8.14e-07
4	18736517	0.0132643	8.12e-07
4	18831492	0.013314812	8.12e-07
4	18928752	0.013365326	8.14e-07
4	19022870	0.013415836	8.12e-07
4	19115625	0.013466348	8.12e-07
4	19216104	0.013516862	8.14e-07
4	19312894	0.013567372	8.12e-07
4	19407947	0.013617884	8.12e-07
4	19507703	0.013668398	8.14e-07
4	19606994	0.013718908	8.12e-07
4	19705520	0.01376942	8.12e-07
4	19802626	0.013819934	8.14e-07
4	19897155	0.013870444	8.12e-07
4	19987115	0.013920956	8.12e-07
4	20082207	0.01397147	8.14e-07
4	20179812	0.01402198	8.12e-07
4	20281176	0.014072492	8.12e-07
4	20378810	0.014123004	8.12e-07
4	20471849	0.014173516	8.12e-07
4	20566939	0.014224028	8.12e-07
4	20670935	0.01427454	8.12e-07
4	20773085	0.014325052	8.12e-07
4	20864979	0.014375564	8.12e-07
4	20956638	0.014426076	8.12e-07
4	21054614	0.014476588	8.12e-07
4	21147917	0.0145271	8.12e-07
4	21242344	0.014577612	8.12e-07
4	21341655	0.014628124	8.12e-07
4	21442867	0.014678636	8.12e-07
4	21537252	0.014729148	8.12e-07
4	21634367	0.01477966	8.12e-07
4	21734130	0.014830172	8.12e-07
4	21832769	0.014880684	8.12e-07
4	21931264	0.014931196	8.12e-07
4	22026705	0.014981708	8.12e-07
4	22118631	0.01503222	8.12e-07
4	22211706	0.015082732	8.12e-07
4	22309602	0.015133244	8.12e-07
4	22413125	0.015183756	8.12e-07
4	22518174	0.015234268	8.12e-07
4	22611712	0.01528478	8.12e-07
4	22709349	0.015335292	8.12e-07
4	22816885	0.015385804	8.12e-07
4	22917629	0.015436316	8.12e-07
4	23011028	0.015486828	8.12e-07
4	23104715	0.01553734	8.12e-07
4	23199415	0.015587852	8.12e-07
4	23294918	0.015638364	8.12e-07
4	23391936	0.015688876	8.12e-07
4	23490217	0.015739388	8.12e-07
4	23594268	0.0157899	8.12e-07
4	23696142	0.015840412	8.12e-07
4	23789763	0.015890924	8.12e-07
4	23882791	0.015941436	8.12e-07
4	23982077	0.015991948	8.12e-07
4	24078283	0.01604246	8.12e-07
4	24176018	0.016092972	8.12e-07
4	24276250	0.016143484	8.12e-07
4	24370650	0.016193996	8.12e-07
4	24463488	0.016244508	8.12e-07
4	24566191	0.01629502	8.12e-07
4	24667796	0.016345532	8.12e-07
4	24766584	0.016396044	8.12e-07
4	24855817	0.016446556	8.12e-07
4	24942680	0.016497068	8.12e-07
4	25034838	0.01654758	8.12e-07
4	25129312	0.016598092	8.12e-07
4	25213885	0.016648604	8.12e-07
4	25298095	0.016699116	8.12e-07
4	25386260	0.016749628	8.12e-07
4	25471699	0.01680014	8.12e-07
4	25551683	0.016850652	8.12e-07
4	25637912	0.016901164	8.12e-07
4	25725162	0.016951676	8.12e-07
4	25811321	0.017002188	8.12e-07
4	25895750	0.0170527	8.12e-07
4	25975546	0.017103212	8.12e-07
5	5997339	0.007051524	1.012e-06
5	6102301	0.007102036	1.012e-06
5	6209472	0.007152671365	1.135365e-06
5	6318084	0.00720306	1.012e-06
5	6424541	0.007253572	1.012e-06
5	6526718	0.007304086	1.014e-06
5	6630685	0.007355108	1.524e-06
5	6735258	0.007405108	1.012e-06
5	6845363	0.007455622	1.014e-06
5	6953899	0.007506132	1.012e-06
5	7062941	0.007557156	1.524e-06
5	7164909	0.007607158	1.014e-06
5	7271299	0.007657668	1.012e-06
5	7385624	0.007708692	1.524e-06
5	7494948	0.007758694	1.014e-06
5	7599180	0.007809204	1.012e-06
5	7699584	0.007859716	1.012e-06
5	7805680	0.00791023	1.014e-06
5	7913956	0.00796074	1.012e-06
5	8020611	0.008011252	1.012e-06
5	8127125	0.008061766	1.014e-06
5	8235831	0.008112276	1.012e-06
5	8341292	0.008162788	1.012e-06
5	8450290	0.008213302	1.014e-06
5	8560854	0.008263812	1.012e-06
5	8669969	0.008314324	1.012e-06
5	8777036	0.008364838	1.014e-06
5	8878558	0.008415348	1.012e-06
5	8981197	0.00846586	1.012e-06
5	9090040	0.008516374	1.014e-06
5	9196085	0.008566884	1.012e-06
5	9307736	0.008617908	1.524e-06
5	9418381	0.00866791	1.014e-06
5	9522365	0.00871842	1.012e-06
5	9626675	0.008768932	1.012e-06
5	9741127	0.008819827991	1.395991e-06
5	9851328	0.008869956	1.012e-06
5	9958481	0.008920468	1.012e-06
5	10060174	0.008970982	1.014e-06
5	10161163	0.009021492	1.012e-06
5	10229473	0.00905255	2.038e-06
5	10271156	0.009072004	1.012e-06
5	10345313	0.00910306	2.036e-06
5	10389714	0.009122518	1.014e-06
5	10453884	0.00915306	1.524e-06
5	10497773	0.009173028	1.012e-06
5	10566519	0.009204086	2.038e-06
5	10603995	0.00922354	1.012e-06
5	10669323	0.009254598	2.038e-06
5	10711234	0.009274054	1.014e-06
5	10776683	0.009305108	2.036e-06
5	10819946	0.009324564	1.012e-06
5	10891847	0.009355622	2.038e-06
5	10934314	0.009375076	1.012e-06
5	11002694	0.009406134	2.038e-06
5	11046678	0.00942559	1.014e-06
5	11115696	0.009456644	2.036e-06
5	11158645	0.0094761	1.012e-06
5	11224348	0.009507158	2.038e-06
5	11262813	0.009526612	1.012e-06
5	11328512	0.00955767	2.038e-06
5	11369294	0.009577126	1.014e-06
5	11433443	0.00960818	2.036e-06
5	11476690	0.009627636	1.012e-06
5	11544741	0.009658694	2.038e-06
5	11584609	0.009678148	1.012e-06
5	11655486	0.009709206	2.038e-06
5	11700360	0.009729174	1.526e-06
5	11765954	0.009759716	2.036e-06
5	11809495	0.009779172	1.012e-06
5	11879973	0.00981023	2.038e-06
5	11920946	0.009829684	1.012e-06
5	11990566	0.009860742	2.038e-06
5	12034094	0.009880198	1.014e-06
5	12099702	0.009911252	2.036e-06
5	12142757	0.009930708	1.012e-06
5	12211745	0.009961766	2.038e-06
5	12253700	0.00998122	1.012e-06
5	12324331	0.010012278	2.038e-06
5	12366471	0.010031734	1.014e-06
5	12431990	0.010062788	2.036e-06
5	12473562	0.010082244	1.012e-06
5	12538564	0.010113302	2.038e-06
5	12576951	0.010132756	1.012e-06
5	12642475	0.010163814	2.038e-06
5	12684775	0.01018327	1.014e-06
5	12752367	0.010214324	2.036e-06
5	12796368	0.010233857692	1.089692e-06
5	12861683	0.010264324	1.524e-06
5	12906805	0.010284292	1.012e-06
5	12977255	0.01031535	2.038e-06
5	13021978	0.010334806	1.014e-06
5	13090013	0.01036586	2.036e-06
5	13132954	0.010385316	1.012e-06
5	13197264	0.01041586	1.524e-06
5	13241098	0.010435828	1.012e-06
5	13307021	0.010466374	1.526e-06
5	13350251	0.010486342	1.014e-06
5	13417207	0.010517396	2.036e-06
5	13462805	0.010536852	1.012e-06
5	13533508	0.01056791	2.038e-06
5	13572509	0.010587364	1.012e-06
5	13638105	0.01061791	1.526e-06
5	13680884	0.01063839	1.526e-06
5	13741006	0.010668932	2.036e-06
5	13779837	0.010688388	1.012e-06
5	13843800	0.010719446	2.038e-06
5	13883375	0.0107389	1.012e-06
5	13949798	0.010769958	2.038e-06
5	13990250	0.010789414	1.014e-06
5	14052773	0.010819956	1.524e-06
5	14094754	0.010839924	1.012e-06
5	14158756	0.01087098	2.036e-06
5	14196510	0.010890436	1.012e-06
5	14261302	0.010921494	2.038e-06
5	14301465	0.01094095	1.014e-06
5	14362169	0.010972004	2.036e-06
5	14401284	0.01099146	1.012e-06
5	14461564	0.011022004	1.524e-06
5	14502555	0.011041972	1.012e-06
5	14568560	0.01107303	2.038e-06
5	14609516	0.011092486	1.014e-06
5	14672526	0.01112354	2.036e-06
5	14709928	0.011142996	1.012e-06
5	14772192	0.011174052	2.036e-06
5	14810566	0.01119402	1.524e-06
5	14876453	0.011224566	2.038e-06
5	14915495	0.011244022	1.014e-06
5	14977717	0.011275076	2.036e-06
5	15016524	0.011294532	1.012e-06
5	15081458	0.011325588	2.036e-06
5	15114354	0.011345044	1.012e-06
5	15172845	0.011376102	2.038e-06
5	15210549	0.01139607	1.526e-06
5	15269516	0.011426612	2.036e-06
5	15305768	0.011446068	1.012e-06
5	15369053	0.011477124	2.036e-06
5	15405147	0.01149658	1.012e-06
5	15468953	0.011527638	2.038e-06
5	15505961	0.011547094	1.014e-06
5	15563827	0.011578148	2.036e-06
5	15597984	0.011597604	1.012e-06
5	15654561	0.01162866	2.036e-06
5	15686973	0.011648116	1.012e-06
5	15749156	0.011679174	2.038e-06
5	15785176	0.01169863	1.014e-06
5	15844104	0.011729868597	2.220597e-06
5	15880096	0.01174914	1.012e-06
5	15939178	0.011780199	2.039e-06
5	15972082	0.011799652	1.012e-06
5	16033326	0.01183071	2.038e-06
5	16069012	0.011850166	1.014e-06
5	16124541	0.011880708	1.524e-06
5	16160069	0.011900676	1.012e-06
5	16215554	0.01193122	1.524e-06
5	16252127	0.011951188	1.012e-06
5	16314477	0.011982246	2.038e-06
5	16352299	0.012001702	1.014e-06
5	16413914	0.012032756	2.036e-06
5	16451107	0.012052212	1.012e-06
5	16508785	0.012082756	1.524e-06
5	16546396	0.012102724	1.012e-06
5	16607381	0.012133782	2.038e-06
5	16641992	0.012153238	1.014e-06
5	16699527	0.012184292	2.036e-06
5	16736020	0.012203748	1.012e-06
5	16796860	0.012234804	2.036e-06
5	16828719	0.01225426	1.012e-06
5	16886763	0.012284806	1.526e-06
5	16923166	0.012305115429	1.355429e-06
5	16977718	0.012335828	2.036e-06
5	17013418	0.012355284	1.012e-06
5	17077175	0.01238634	2.036e-06
5	17112038	0.012405796	1.012e-06
5	17170928	0.012436342	1.526e-06
5	17206804	0.012456574171	1.278171e-06
5	17262630	0.012487364	2.036e-06
5	17297357	0.01250682	1.012e-06
5	17358035	0.012537876	2.036e-06
5	17393695	0.012557332	1.012e-06
5	17458902	0.01258839	2.038e-06
5	17497351	0.012607846	1.014e-06
5	17558628	0.0126389	2.036e-06
5	17597322	0.012658868	1.524e-06
5	17655112	0.012689412	2.036e-06
5	17686058	0.012708868	1.012e-06
5	17743535	0.012739926	2.038e-06
5	17778508	0.012759382	1.014e-06
5	17833893	0.012789924	1.524e-06
5	17869841	0.0128101	1.22e-06
5	17926687	0.012840436	1.524e-06
5	17963169	0.012860404	1.012e-06
5	18023381	0.012891462	2.038e-06
5	18059224	0.012910918	1.014e-06
5	18117824	0.012941972	2.036e-06
5	18154625	0.012961428	1.012e-06
5	18211417	0.012992484	2.036e-06
5	18247569	0.013012452	1.524e-06
5	18307742	0.013042998	2.038e-06
5	18345313	0.013062454	1.014e-06
5	18405282	0.013093508	2.036e-06
5	18445167	0.013112964	1.012e-06
5	18506636	0.01314402	2.036e-06
5	18546051	0.013163476	1.012e-06
5	18605922	0.013194022	1.526e-06
5	18645046	0.01321399	1.014e-06
5	18701494	0.013245044	2.036e-06
5	18736987	0.0132645	1.012e-06
5	18793450	0.013295556	2.036e-06
5	18831931	0.013315012	1.012e-06
5	18890765	0.013345558	1.526e-06
5	18929396	0.013365526	1.014e-06
5	18986677	0.013396068	1.524e-06
5	19023218	0.013416036	1.012e-06
5	19078094	0.013447092	2.036e-06
5	19116159	0.013466548	1.012e-06
5	19177852	0.013497606	2.038e-06
5	19216718	0.013517062	1.014e-06
5	19274676	0.013547604	1.524e-06
5	19313412	0.013567572	1.012e-06
5	19370820	0.013598628	2.036e-06
5	19408523	0.013618084	1.012e-06
5	19469292	0.013649142	2.038e-06
5	19508286	0.013668598	1.014e-06
5	19568241	0.013699652	2.036e-06
5	19607446	0.013719108	1.012e-06
5	19666169	0.013749652	1.524e-06
5	19705936	0.01376962	1.012e-06
5	19766386	0.013800678	2.038e-06
5	19803242	0.013820134	1.014e-06
5	19860260	0.013851188	2.036e-06
5	19897605	0.013870644	1.012e-06
5	19951836	0.0139017	2.036e-06
5	19987505	0.013921156	1.012e-06
5	20045697	0.013951702	1.526e-06
5	20082694	0.01397167	1.014e-06
5	20140870	0.014002724	2.036e-06
5	20180300	0.01402218	1.012e-06
5	20241620	0.014053236	2.036e-06
5	20281623	0.014072692	1.012e-06
5	20345409	0.01410375	2.038e-06
5	20382179	0.014123558066	1.366066e-06
5	20436305	0.01415426	2.036e-06
5	20472215	0.014173716	1.012e-06
5	20528746	0.014204772	2.036e-06
5	20567527	0.014224228	1.012e-06
5	20632714	0.014255286	2.038e-06
5	20673717	0.014274742	1.014e-06
5	20735060	0.014305284	1.524e-06
5	20773559	0.014325252	1.012e-06
5	20828548	0.014356308	2.036e-06
5	20865437	0.014375764	1.012e-06
5	20923611	0.014406822	2.038e-06
5	20959192	0.014426278	1.014e-06
5	21016258	0.01445682	1.524e-06
5	21055204	0.014476788	1.012e-06
5	21111212	0.014507844	2.036e-06
5	21148342	0.0145273	1.012e-06
5	21208028	0.014558358	2.038e-06
5	21244906	0.014577814	1.014e-06
5	21302805	0.014608868	2.036e-06
5	21343106	0.014628836	1.524e-06
5	21402694	0.014658868	1.524e-06
5	21443400	0.014678836	1.012e-06
5	21502864	0.014709894	2.038e-06
5	21540009	0.01472935	1.014e-06
5	21597740	0.014760404	2.036e-06
5	21634784	0.01477986	1.012e-06
5	21693096	0.014810404	1.524e-06
5	21734509	0.014830372	1.012e-06
5	21797537	0.01486143	2.038e-06
5	21835428	0.014880886	1.014e-06
5	21893471	0.01491194	2.036e-06
5	21931723	0.014931396	1.012e-06
5	21990199	0.014962452	2.036e-06
5	22027158	0.014981908	1.012e-06
5	22085887	0.015012966	2.038e-06
5	22121260	0.015032422	1.014e-06
5	22176568	0.015063476	2.036e-06
5	22212053	0.015082932	1.012e-06
5	22271741	0.015113988	2.036e-06
5	22310000	0.015133444	1.012e-06
5	22375000	0.01516399	1.526e-06
5	22415704	0.015183958	1.014e-06
5	22480700	0.015215012	2.036e-06
5	22518653	0.015234468	1.012e-06
5	22575746	0.015265524	2.036e-06
5	22612087	0.01528498	1.012e-06
5	22673828	0.015316038	2.038e-06
5	22711968	0.015335494	1.014e-06
5	22775827	0.015366548	2.036e-06
5	22817327	0.015386004	1.012e-06
5	22881589	0.01541706	2.036e-06
5	22918075	0.015436516	1.012e-06
5	22978175	0.015467574	2.038e-06
5	23013637	0.01548703	1.014e-06
5	23069519	0.015518084	2.036e-06
5	23105147	0.01553754	1.012e-06
5	23163294	0.015568596	2.036e-06
5	23199931	0.015588052	1.012e-06
5	23260233	0.015618598	1.526e-06
5	23297455	0.015638566	1.014e-06
5	23354969	0.01566962	2.036e-06
5	23392493	0.015689076	1.012e-06
5	23452616	0.015720132	2.036e-06
5	23490610	0.015739588	1.012e-06
5	23555160	0.015770134	1.526e-06
5	23597028	0.015790102	1.014e-06
5	23658830	0.015821156	2.036e-06
5	23696511	0.015840612	1.012e-06
5	23754870	0.015871668	2.036e-06
5	23790155	0.015891124	1.012e-06
5	23849259	0.015922182	2.038e-06
5	23885420	0.015941638	1.014e-06
5	23944511	0.015972692	2.036e-06
5	23982946	0.015992395931	1.259931e-06
5	24041646	0.016023204	2.036e-06
5	24078746	0.01604266	1.012e-06
5	24140864	0.016073718	2.038e-06
5	24179926	0.016093686	1.526e-06
5	24239375	0.016124228	2.036e-06
5	24276688	0.016143684	1.012e-06
5	24333898	0.016174228	1.524e-06
5	24371179	0.016194196	1.012e-06
5	24430086	0.016225254	2.038e-06
5	24463903	0.016244708	1.012e-06
5	24527890	0.016275764	2.036e-06
5	24566569	0.01629522	1.012e-06
5	24628622	0.016326276	2.036e-06
5	24668295	0.016345732	1.012e-06
5	24732627	0.01637679	2.038e-06
5	24766901	0.016396244	1.012e-06
5	24822869	0.0164273	2.036e-06
5	24856230	0.016446756	1.012e-06
5	24909136	0.016477812	2.036e-06
5	24943052	0.016497268	1.012e-06
5	25001175	0.016528326	2.038e-06
5	25035324	0.01654778	1.012e-06
5	25095826	0.016578836	2.036e-06
5	25129681	0.016598292	1.012e-06
5	25181671	0.016629348	2.036e-06
5	25214295	0.016648804	1.012e-06
5	25268568	0.016679862	2.038e-06
5	25298532	0.016699316	1.012e-06
5	25353688	0.016730372	2.036e-06
5	25386580	0.016749828	1.012e-06
5	25440654	0.016780884	2.036e-06
5	25472140	0.01680034	1.012e-06
5	25522588	0.016831398	2.038e-06
5	25552073	0.016850852	1.012e-06
5	25605246	0.016881908	2.036e-06
5	25638288	0.016901364	1.012e-06
5	25692025	0.01693242	2.036e-06
5	25725549	0.016951876	1.012e-06
5	25780830	0.016982934	2.038e-06
5	25811773	0.017002388	1.012e-06
5	25863599	0.017033444	2.036e-06
5	25896119	0.0170529	1.012e-06
5	25943499	0.017083956	2.036e-06
5	25976010	0.017103412	1.012e-06
5	26027097	0.01713447	2.038e-06
5	26107941	0.01718498	2.036e-06
5	26190479	0.017235492	2.036e-06
5	26276188	0.017286006	2.038e-06
5	26354876	0.017336516	2.036e-06
5	26434190	0.017387028	2.036e-06
5	26521339	0.017437542	2.038e-06
5	26608701	0.017488052	2.036e-06
5	26692151	0.017538564	2.036e-06
5	26778013	0.017589078	2.038e-06
5	26859045	0.017639588	2.036e-06
5	26940491	0.0176901	2.036e-06
5	27023254	0.017740614	2.038e-06
5	27101409	0.017791124	2.036e-06
5	27182814	0.017841636	2.036e-06
5	27267282	0.01789215	2.038e-06
5	27350757	0.01794266	2.036e-06
5	27435906	0.017993172	2.036e-06
5	27522264	0.018043686	2.038e-06
5	27605752	0.018094196	2.036e-06
5	27689304	0.018144708	2.036e-06
5	27773076	0.018195222	2.038e-06
5	27852675	0.018245732	2.036e-06
5	27931264	0.018296244	2.036e-06
5	28016107	0.018346758	2.038e-06
5	28098546	0.018397268	2.036e-06
5	28178789	0.01844778	2.036e-06
5	28264387	0.018498294	2.038e-06
5	28349778	0.018548804	2.036e-06
5	28436376	0.018599316	2.036e-06
5	28519691	0.01864983	2.038e-06
5	28598841	0.01870034	2.036e-06
5	28682540	0.018750852	2.036e-06
5	28768096	0.018801366	2.038e-06
5	28849066	0.018851876	2.036e-06
5	28926118	0.018902388	2.036e-06
5	29007612	0.018952902	2.038e-06
5	29091788	0.019003412	2.036e-06
5	29181085	0.019053924	2.036e-06
5	29272407	0.019104438	2.038e-06
6	5997341	0.007051524	1.012e-06
6	6105712	0.007102548	1.524e-06
6	6209214	0.00715255	1.014e-06
6	6320078	0.007204084	2.036e-06
6	6424543	0.007253572	1.012e-06
6	6526720	0.007304086	1.014e-06
6	6629724	0.007354596	1.012e-06
6	6739524	0.007405951726	1.855726e-06
6	6847023	0.007456462265	1.854265e-06
6	6956011	0.007507191775	2.071775e-06
6	7059603	0.007556644	1.012e-06
6	7166174	0.007607714131	1.570131e-06
6	7271301	0.007657668	1.012e-06
6	7385774	0.007708753335	1.585335e-06
6	7494950	0.007758694	1.014e-06
6	7600070	0.007809716	1.524e-06
6	7699586	0.007859716	1.012e-06
6	7806535	0.007910606511	1.390511e-06
6	7916007	0.007961764	2.036e-06
6	8024546	0.008012007	1.767e-06
6	8127127	0.008061766	1.014e-06
6	8238551	0.008113812	2.548e-06
6	8342445	0.0081633	1.524e-06
6	8451281	0.008213812	1.524e-06
6	8560856	0.008263812	1.012e-06
6	8669971	0.008314324	1.012e-06
6	8777038	0.008364838	1.014e-06
6	8878560	0.008415348	1.012e-06
6	8981211	0.008465861	1.013e-06
6	9090042	0.008516374	1.014e-06
6	9196087	0.008566884	1.012e-06
6	9306653	0.008617396	1.012e-06
6	9419716	0.00866876485	1.86885e-06
6	9523285	0.008718932	1.524e-06
6	9626677	0.008768932	1.012e-06
6	9741395	0.008819958	1.526e-06
6	9851520	0.008870024203	1.080203e-06
6	9962090	0.008921109094	1.653094e-06
6	10060176	0.008970982	1.014e-06
6	10161476	0.009021653	1.173e-06
6	10271158	0.009072004	1.012e-06
6	10389716	0.009122518	1.014e-06
6	10499697	0.009174052	2.036e-06
6	10607939	0.009224435407	1.907407e-06
6	10711236	0.009274054	1.014e-06
6	10821043	0.009325076	1.524e-06
6	10935377	0.009375588	1.524e-06
6	11046680	0.00942559	1.014e-06
6	11158647	0.0094761	1.012e-06
6	11262992	0.009526731	1.131e-06
6	11370247	0.009577558512	1.446512e-06
6	11477743	0.009628148	1.524e-06
6	11584611	0.009678148	1.012e-06
6	11700362	0.009729174	1.526e-06
6	11809497	0.009779172	1.012e-06
6	11926147	0.009831009	2.337e-06
6	12035382	0.009880870836	1.686836e-06
6	12144346	0.009931548616	1.852616e-06
6	12253702	0.00998122	1.012e-06
6	12367669	0.010032246	1.526e-06
6	12473564	0.010082244	1.012e-06
6	12576953	0.010132756	1.012e-06
6	12684777	0.01018327	1.014e-06
6	12797167	0.010234292	1.524e-06
6	12906807	0.010284292	1.012e-06
6	13021980	0.010334806	1.014e-06
6	13134649	0.010386244115	1.940115e-06
6	13242245	0.01043634	1.524e-06
6	13350253	0.010486342	1.014e-06
6	13462807	0.010536852	1.012e-06
6	13573276	0.010587718386	1.366386e-06
6	13680886	0.01063839	1.526e-06
6	13779839	0.010688388	1.012e-06
6	13888200	0.010740147632	2.259632e-06
6	13991321	0.010789926	1.526e-06
6	14095777	0.010840453013	1.541013e-06
6	14197627	0.010891040366	1.616366e-06
6	14302318	0.010941333359	1.397359e-06
6	14401390	0.01099151465	1.06665e-06
6	14503404	0.011042484	1.524e-06
6	14611036	0.011093327156	1.855156e-06
6	14710796	0.011143525372	1.541372e-06
6	14810192	0.011193821788	1.325788e-06
6	14916804	0.011244691048	1.683048e-06
6	15018322	0.011295556	2.036e-06
6	15114867	0.011345360379	1.328379e-06
6	15210551	0.01139607	1.526e-06
6	15307066	0.011446969532	1.913532e-06
6	15409302	0.011497604	2.036e-06
6	15505963	0.011547094	1.014e-06
6	15597986	0.011597604	1.012e-06
6	15690844	0.011649127	2.023e-06
6	15786347	0.011699142	1.526e-06
6	15880098	0.01174914	1.012e-06
6	15972084	0.011799652	1.012e-06
6	16069014	0.011850166	1.014e-06
6	16161359	0.0119017	2.036e-06
6	16252899	0.0119517	1.524e-06
6	16354262	0.012002726	2.038e-06
6	16451109	0.012052212	1.012e-06
6	16546877	0.012102993314	1.281314e-06
6	16641994	0.012153238	1.014e-06
6	16736447	0.012204028809	1.292809e-06
6	16829067	0.012254479951	1.231951e-06
6	16922433	0.012304774	1.014e-06
6	17014218	0.012355662309	1.390309e-06
6	17112040	0.012405796	1.012e-06
6	17206234	0.01245631	1.014e-06
6	17297359	0.01250682	1.012e-06
6	17395029	0.012558136283	1.816283e-06
6	17497353	0.012607846	1.014e-06
6	17598137	0.01265938	2.036e-06
6	17686837	0.01270938	1.524e-06
6	17778510	0.012759382	1.014e-06
6	17870388	0.012810404	1.524e-06
6	17963961	0.012860931221	1.539221e-06
6	18059226	0.012910918	1.014e-06
6	18155421	0.012962015542	1.599542e-06
6	18248197	0.013012964	2.036e-06
6	18346217	0.01306298101	1.54101e-06
6	18445169	0.013112964	1.012e-06
6	18546343	0.013163653521	1.189521e-06
6	18646197	0.013214502	1.526e-06
6	18737417	0.013264798498	1.310498e-06
6	18832931	0.013315748381	1.748381e-06
6	18930565	0.013366038	1.526e-06
6	19023954	0.013416548	1.524e-06
6	19116161	0.013466548	1.012e-06
6	19216720	0.013517062	1.014e-06
6	19314293	0.013568084	1.524e-06
6	19409294	0.013618634775	1.562775e-06
6	19510097	0.013669622	2.038e-06
6	19607826	0.013719350208	1.254208e-06
6	19706807	0.013770132	1.524e-06
6	19804347	0.013820646	1.526e-06
6	19897979	0.013870879589	1.247589e-06
6	19988210	0.013921668	1.524e-06
6	20083881	0.013972182	1.526e-06
6	20180302	0.01402218	1.012e-06
6	20283187	0.014073623954	1.943954e-06
6	20381497	0.014123206	1.014e-06
6	20472950	0.014174228	1.524e-06
6	20567529	0.014224228	1.012e-06
6	20673719	0.014274742	1.014e-06
[...]
72	36206779	0.023678855535	1.719535e-06
72	36274102	0.023729174	1.526e-06
72	36341706	0.023780129529	1.969529e-06
72	36406947	0.023830034517	1.362517e-06
72	36476230	0.023880314004	1.130004e-06
72	36549222	0.023931855801	2.159801e-06
72	36620702	0.023982019639	1.811639e-06
72	36690735	0.024032630162	1.910162e-06
72	36755090	0.024082770999	1.538999e-06
72	36818864	0.024133268	1.524e-06
72	36888408	0.024184105354	1.849354e-06
72	36955548	0.024234220786	1.452786e-06
72	37022719	0.024284804	1.524e-06
72	37088652	0.024334806	1.014e-06
72	37152972	0.024385316	1.012e-06
72	37222795	0.024436571631	1.755631e-06
72	37297095	0.02448673609	1.40809e-06
72	37368861	0.024537364	1.524e-06
72	37433629	0.024588053795	1.701795e-06
72	37498547	0.024637923348	1.059348e-06
72	37567164	0.024689212256	1.836256e-06
72	37633900	0.024739412	1.524e-06
72	37702128	0.024790438	2.038e-06
72	37765880	0.024840345977	1.433977e-06
72	37829726	0.024890436	1.012e-06
72	37901585	0.024941462	1.526e-06
72	37973960	0.024991808056	1.360056e-06
72	38044971	0.025041972	1.012e-06
72	38113791	0.025092486	1.014e-06
72	38178227	0.025142996	1.012e-06
72	38243375	0.025193799269	1.303269e-06
72	38312142	0.025244311359	1.303359e-06
72	38373652	0.025295044	1.524e-06
72	38433862	0.025345613345	1.581345e-06
72	38496648	0.025395758337	1.214337e-06
72	38562883	0.025446347276	1.291276e-06
72	38634142	0.025497604	2.036e-06
72	38699605	0.025547606	1.526e-06
72	38765381	0.025598454287	1.862287e-06
72	38829501	0.025648628	1.524e-06
72	38898230	0.025699654	2.038e-06
72	38964993	0.025749652	1.524e-06
72	39025609	0.025800164	1.524e-06
72	39087254	0.025850166	1.014e-06
72	39146770	0.025901188	1.524e-06
72	39212166	0.025951543813	1.367813e-06
72	39283169	0.026002214	1.526e-06
72	39348240	0.026052724	1.524e-06
72	39412306	0.026102724	1.012e-06
72	39476448	0.02615375	1.526e-06
72	39539756	0.02620398061	1.24461e-06
72	39600366	0.026254677653	1.429653e-06
72	39658435	0.026304774	1.014e-06
72	39714529	0.026355796	1.524e-06
72	39771246	0.026405796	1.012e-06
72	39831200	0.02645631	1.014e-06
72	39887293	0.026506942284	1.134284e-06
72	39937870	0.026557656284	1.336284e-06
72	39991703	0.026607846	1.014e-06
72	40047591	0.026658868	1.524e-06
72	40103317	0.02670938	1.524e-06
72	40160105	0.026759382	1.014e-06
72	40209612	0.026809892	1.012e-06
72	40259565	0.026860404	1.012e-06
72	40310176	0.026910918	1.014e-06
72	40361642	0.026961428	1.012e-06
72	40414397	0.02701194	1.012e-06
72	40466761	0.027062454	1.014e-06
72	40518404	0.027112964	1.012e-06
72	40569975	0.027163476	1.012e-06
72	40624412	0.02721399	1.014e-06
72	40672993	0.0272645	1.012e-06
72	40722308	0.027315012	1.012e-06
72	40773969	0.027365526	1.014e-06
72	40824103	0.027416036	1.012e-06
72	40870387	0.027466548	1.012e-06
72	40915438	0.027517062	1.014e-06
72	40962545	0.027567572	1.012e-06
72	41012176	0.027618084	1.012e-06
72	41065510	0.027668598	1.014e-06
72	41116213	0.02771962	1.524e-06
72	41164431	0.02776962	1.012e-06
72	41215624	0.027820134	1.014e-06
72	41267939	0.027870644	1.012e-06
72	41318086	0.027921156	1.012e-06
72	41367675	0.02797167	1.014e-06
72	41410876	0.02802218	1.012e-06
72	41455729	0.028072692	1.012e-06
72	41508835	0.028123718	1.526e-06
72	41560012	0.028173716	1.012e-06
72	41611037	0.028224228	1.012e-06
72	41662819	0.028274742	1.014e-06
72	41710621	0.028325252	1.012e-06
72	41759733	0.028376089139	1.337139e-06
72	41810752	0.028426278	1.014e-06
72	41861330	0.028476788	1.012e-06
72	41906968	0.0285273	1.012e-06
72	41952306	0.028577814	1.014e-06
72	41998812	0.028628324	1.012e-06
72	42050686	0.028678836	1.012e-06
72	42104347	0.028729643299	1.307299e-06
72	42153407	0.02877986	1.012e-06
72	42202078	0.028830884	1.524e-06
72	42251292	0.028880884	1.012e-06
72	42305139	0.028931396	1.012e-06
72	42355348	0.028981908	1.012e-06
72	42400909	0.02903242	1.012e-06
72	42446612	0.029082932	1.012e-06
72	42494741	0.029133444	1.012e-06
72	42542729	0.029183956	1.012e-06
72	42590714	0.029234468	1.012e-06
72	42636117	0.02928498	1.012e-06
72	42682963	0.029335492	1.012e-06
72	42735832	0.029386516	1.524e-06
72	42785113	0.029437028	1.524e-06
72	42830391	0.029487028	1.012e-06
72	42877051	0.02953754	1.012e-06
72	42924389	0.029588052	1.012e-06
72	42969115	0.029638564	1.012e-06
72	43012859	0.029689076	1.012e-06
72	43058257	0.029739588	1.012e-06
72	43105856	0.0297901	1.012e-06
72	43157301	0.029840612	1.012e-06
72	43206113	0.029891124	1.012e-06
72	43252024	0.029941636	1.012e-06
72	43300586	0.029992148	1.012e-06
72	43350736	0.03004266	1.012e-06
72	43397840	0.030093172	1.012e-06
72	43443143	0.030143684	1.012e-06
72	43485180	0.030194196	1.012e-06
72	43525908	0.030244708	1.012e-06
72	43571581	0.030295732	1.524e-06
72	43616575	0.030345732	1.012e-06
72	43661211	0.030396244	1.012e-06
72	43704779	0.030446756	1.012e-06
72	43747333	0.030497268	1.012e-06
72	43787727	0.03054778	1.012e-06
72	43830578	0.030598292	1.012e-06
72	43873056	0.030648804	1.012e-06
72	43920131	0.030699316	1.012e-06
72	43967663	0.030749828	1.012e-06
72	44014444	0.03080034	1.012e-06
72	44059674	0.030850852	1.012e-06
72	44106845	0.030901364	1.012e-06
72	44153559	0.030951876	1.012e-06
72	44198318	0.031002388	1.012e-06
72	44244426	0.0310529	1.012e-06
72	44287112	0.031103412	1.012e-06
73	32451616	0.02105859932	8.08732e-06
73	32534826	0.021107503	6.479e-06
73	32619806	0.021157679	6.143e-06
73	32700659	0.021206831	4.783e-06
73	32780466	0.02125683932	4.27932e-06
73	32865145	0.021308207	5.135e-06
73	32948285	0.021358895	5.311e-06
73	33033370	0.021410095	5.999e-06
73	33109224	0.021460271	5.663e-06
73	33180173	0.021510447	5.327e-06
73	33250116	0.021559599	3.967e-06
73	33329402	0.021611823	5.679e-06
73	33406649	0.021661999	5.343e-06
73	33483131	0.021711151	3.983e-06
73	33561046	0.021762863	5.183e-06
73	33638931	0.021813551	5.359e-06
73	33722861	0.021864751	6.047e-06
73	33803806	0.021914927	5.711e-06
73	33883800	0.021965103	5.375e-06
73	33953900	0.022014255	4.015e-06
73	34020812	0.022065967	5.215e-06
73	34091911	0.022119192581	7.928581e-06
73	34163250	0.022167855	6.079e-06
73	34234997	0.022217519	5.231e-06
73	34305814	0.022268207	5.407e-06
73	34375012	0.022317359	4.047e-06
73	34449934	0.022369583	5.759e-06
73	34526866	0.022422319	7.983e-06
73	34593827	0.022468911	4.063e-06
73	34666482	0.022520623	5.263e-06
73	34731399	0.022571311	5.439e-06
73	34799793	0.022623023	6.639e-06
73	34868849	0.022672175	5.279e-06
73	34934313	0.022718932	1.524e-06
73	35002629	0.022769956	2.036e-06
73	35064376	0.022819958	1.526e-06
73	35127746	0.022870468	1.524e-06
73	35193602	0.02292098	1.524e-06
73	35263160	0.022971852937	1.884937e-06
73	35329563	0.023022004	1.524e-06
73	35394074	0.023072516	1.524e-06
73	35458111	0.02312303	1.526e-06
73	35523985	0.02317354	1.524e-06
73	35597824	0.02322449293	1.96493e-06
73	35666096	0.023274566	1.526e-06
73	35730566	0.023325076	1.524e-06
73	35798967	0.023376089417	2.025417e-06
73	35871371	0.023426614	2.038e-06
73	35942522	0.023476914298	1.826298e-06
73	36009691	0.023527124	1.524e-06
73	36076700	0.023577638	1.526e-06
73	36141606	0.023628320592	1.696592e-06
73	36206621	0.02367866	1.524e-06
73	36274575	0.023729686	2.038e-06
73	36341751	0.023780155381	1.995381e-06
73	36409691	0.023830708	2.036e-06
73	36477123	0.023881222	2.038e-06
73	36549157	0.023931732	2.036e-06
73	36620369	0.023981732	1.524e-06
73	36690322	0.024032246	1.526e-06
73	36755470	0.024083268	2.036e-06
73	36818866	0.024133268	1.524e-06
73	36888175	0.024183931146	1.675146e-06
73	36955637	0.024234292	1.524e-06
73	37022721	0.024284804	1.524e-06
73	37089322	0.024335318	1.526e-06
73	37153628	0.024385828	1.524e-06
73	37225180	0.024436792906	1.976906e-06
73	37297232	0.024486854	1.526e-06
73	37368867	0.024537364	1.524e-06
73	37436073	0.024588380615	2.028615e-06
73	37499008	0.02463839	1.526e-06
73	37566906	0.0246889	1.524e-06
73	37633902	0.024739412	1.524e-06
73	37702130	0.024790438	2.038e-06
73	37765978	0.024840436	1.524e-06
73	37830263	0.024890948	1.524e-06
73	37902100	0.024941974	2.038e-06
73	37974663	0.024992484	2.036e-06
73	38045391	0.025042484	1.524e-06
73	38114535	0.025092998	1.526e-06
73	38179099	0.02514402	2.036e-06
73	38246354	0.025194532	2.036e-06
73	38312750	0.02524493119	1.92319e-06
73	38374060	0.025295520375	2.000375e-06
73	38434037	0.025345858478	1.826478e-06
73	38497444	0.025396458466	1.914466e-06
73	38563144	0.02544658	1.524e-06
73	38634144	0.025497604	2.036e-06
73	38699607	0.025547606	1.526e-06
73	38765017	0.025598116	1.524e-06
73	38829648	0.025648888713	1.784713e-06
73	38897996	0.02569939372	1.77772e-06
73	38965226	0.02574989608	1.76808e-06
73	39025611	0.025800164	1.524e-06
73	39087870	0.025850831669	1.679669e-06
73	39147383	0.0259017	2.036e-06
73	39212881	0.025952212	2.036e-06
73	39283605	0.026002671789	1.983789e-06
73	39348242	0.026052724	1.524e-06
73	39413199	0.026103748	2.036e-06
73	39476450	0.02615375	1.526e-06
73	39540552	0.026204772	2.036e-06
73	39600919	0.026255284	2.036e-06
73	39659052	0.026305286	1.526e-06
73	39714947	0.026356218013	1.946013e-06
73	39771692	0.026406308	1.524e-06
73	39831863	0.026456829033	1.533033e-06
73	39887709	0.026507408835	1.600835e-06
73	39938445	0.026558356	2.036e-06
73	39992566	0.02660887	2.038e-06
73	40047597	0.026658868	1.524e-06
73	40103671	0.026709892	2.036e-06
73	40160758	0.026760079721	1.711721e-06
73	40210327	0.026810916	2.036e-06
73	40259871	0.026860916	1.524e-06
73	40310968	0.02691177418	1.87018e-06
73	40362051	0.02696194	1.524e-06
73	40414825	0.027012452	1.524e-06
73	40467336	0.027062966	1.526e-06
73	40519157	0.027113988	2.036e-06
73	40570345	0.027163988	1.524e-06
73	40625018	0.027214502	1.526e-06
73	40673500	0.027265012	1.524e-06
73	40722720	0.027315524	1.524e-06
73	40774678	0.027366044549	1.532549e-06
73	40824732	0.02741706	2.036e-06
73	40870883	0.027467358	1.822e-06
73	40916218	0.027517964231	1.916231e-06
73	40963284	0.027568596	2.036e-06
73	41012622	0.027618596	1.524e-06
73	41066495	0.027669622	2.038e-06
73	41116337	0.027719850424	1.754424e-06
73	41165072	0.027770584719	1.976719e-06
73	41216587	0.027820957514	1.837514e-06
73	41268640	0.027871668	2.036e-06
73	41318686	0.027921668	1.524e-06
73	41368476	0.027972694	2.038e-06
73	41411437	0.028023204	2.036e-06
73	41456222	0.028073429815	1.749815e-06
73	41509253	0.02812423	2.038e-06
73	41560678	0.02817474	2.036e-06
73	41611547	0.02822474	1.524e-06
73	41663517	0.028275254	1.526e-06
73	41711197	0.028325764	1.524e-06
73	41760287	0.028376788	2.036e-06
73	41811443	0.02842679	1.526e-06
73	41862100	0.028477725719	1.949719e-06
73	41907262	0.028527812	1.524e-06
73	41953179	0.028578765113	1.965113e-06
73	41999329	0.028628836	1.524e-06
73	42051464	0.02867986	2.036e-06
73	42104631	0.028729862	1.526e-06
73	42153887	0.028780536048	1.688048e-06
73	42202469	0.028831396	2.036e-06
73	42253845	0.028881398	1.526e-06
73	42305583	0.028931908	1.524e-06
73	42355720	0.02898242	1.524e-06
73	42403609	0.029033446	2.038e-06
73	42447014	0.029083444	1.524e-06
73	42495383	0.029134468	2.036e-06
73	42545559	0.029184982	2.038e-06
73	42591101	0.02923498	1.524e-06
73	42636594	0.029285802185	1.834185e-06
73	42685853	0.029336450881	1.970881e-06
73	42736066	0.029386724654	1.732654e-06
73	42785121	0.029437028	1.524e-06
73	42833210	0.029488054	2.038e-06
73	42877519	0.029538052	1.524e-06
73	42925127	0.029589076	2.036e-06
73	42971651	0.029639078	1.526e-06
73	43013441	0.029689932876	1.868876e-06
73	43058694	0.0297401	1.524e-06
73	43108515	0.029790738805	1.650805e-06
73	43157650	0.029841124	1.524e-06
73	43206564	0.029891636	1.524e-06
73	43254903	0.029942662	2.038e-06
73	43301049	0.029992776486	1.640486e-06
73	43351499	0.030043684	2.036e-06
73	43400531	0.030094102404	1.942404e-06
73	43443581	0.030144262347	1.590347e-06
73	43485864	0.03019522	2.036e-06
73	43528566	0.030245717683	2.021683e-06
73	43571639	0.030295845792	1.637792e-06
73	43617349	0.030346756	2.036e-06
73	43663842	0.030397223151	1.991151e-06
73	43705378	0.03044767242	1.92842e-06
73	43748062	0.030498292	2.036e-06
73	43790473	0.030549062781	2.294781e-06
73	43831315	0.030599573119	2.293119e-06
73	43876554	0.030651311119	3.519119e-06
73	43923209	0.030700999119	2.695119e-06
73	43968969	0.030752223119	3.407119e-06
73	44015211	0.030801707603	2.379603e-06
73	44062658	0.03085235112	2.51112e-06
73	44108315	0.03090408712	3.73512e-06
73	44154427	0.03095326312	2.39912e-06
73	44201093	0.031003414	2.038e-06
73	44245723	0.031055662	3.774e-06
73	44287860	0.031104838	2.438e-06
74	32486320	0.021080545	3.0033e-05
74	32571271	0.021129721	2.8697e-05
74	32654867	0.021179409	2.7873e-05
74	32735704	0.021229097	2.7049e-05
74	32816350	0.021278785	2.6225e-05
74	32900260	0.021330011	2.6939e-05
74	32987572	0.021382261	2.8677e-05
74	33066714	0.021432973	2.8877e-05
74	33139243	0.021482661	2.8053e-05
74	33213540	0.021533887	2.8767e-05
74	33284780	0.021583063	2.7431e-05
74	33362140	0.021633775	2.7631e-05
74	33442323	0.021685001	2.8345e-05
74	33517801	0.021734689	2.7521e-05
74	33593785	0.021784889	2.7209e-05
74	33675492	0.021836115	2.7923e-05
74	33756828	0.021886315	2.7611e-05
74	33837881	0.021937027	2.7811e-05
74	33916474	0.021986715	2.6987e-05
74	33982878	0.022036917	2.6677e-05
74	34048459	0.022088141	2.7389e-05
74	34122136	0.022140391	2.9127e-05
74	34193689	0.022190079	2.8303e-05
74	34265231	0.022239255	2.6967e-05
74	34337373	0.022290479	2.7679e-05
74	34407116	0.022340169	2.6857e-05
74	34481233	0.022391905	2.8081e-05
74	34557907	0.022444667	3.0331e-05
74	34623411	0.022490769	2.5921e-05
74	34694193	0.022542507	2.7147e-05
74	34761357	0.022594245	2.8373e-05
74	34828469	0.022644445	2.8061e-05
74	34898708	0.022693621	2.6725e-05
74	34945428	0.022728453	1.1045e-05
74	35003014	0.02277047	2.55e-06
74	35064790	0.02282047	2.038e-06
74	35128445	0.022871492	2.548e-06
74	35196349	0.022921581036	2.125036e-06
74	35263846	0.022972825465	2.857465e-06
74	35330452	0.023023273207	2.793207e-06
74	35397104	0.023073925801	2.933801e-06
74	35458772	0.023124116794	2.612794e-06
74	35528821	0.023176878794	4.862794e-06
74	35600635	0.023228102794	5.574794e-06
74	35666996	0.023275734071	2.694071e-06
74	35731544	0.023326447924	2.895924e-06
74	35801559	0.023379721924	5.657924e-06
74	35876978	0.023430947924	6.371924e-06
74	35946468	0.023479099924	4.011924e-06
74	36013054	0.023528541396	2.941396e-06
74	36078176	0.023579765396	3.653396e-06
74	36146318	0.023632015396	5.391396e-06
74	36211828	0.023682727396	5.591396e-06
74	36275249	0.02373071	3.062e-06
74	36342560	0.023781179381	3.019381e-06
74	36414516	0.023834967381	6.295381e-06
74	36482461	0.023885679381	6.495381e-06
74	36554828	0.023936391381	6.695381e-06
74	36625593	0.023985567381	5.359381e-06
74	36691200	0.024033290946	2.570946e-06
74	36756287	0.02408440656	3.17456e-06
74	36823760	0.02413716856	5.42456e-06
74	36893192	0.02418788256	5.62656e-06
74	36960279	0.02423757056	4.80256e-06
74	37025763	0.02428583	2.55e-06
74	37089934	0.024336376713	2.584713e-06
74	37154229	0.024386861715	2.557715e-06
74	37230696	0.024441161715	6.345715e-06
74	37302278	0.024490337715	5.009715e-06
74	37373011	0.024540025715	4.185715e-06
74	37437134	0.024589918615	3.566615e-06
74	37500421	0.024640416091	3.552091e-06
74	37571475	0.024692154091	4.778091e-06
74	37638864	0.024743378091	5.490091e-06
74	37702875	0.024791462	3.062e-06
74	37766650	0.024841381802	2.469802e-06
74	37834080	0.024893119802	3.695802e-06
74	37907672	0.024946393802	6.457802e-06
74	37980318	0.024997105802	6.657802e-06
74	38049361	0.025044745802	3.785802e-06
74	38115235	0.025094046303	2.574303e-06
74	38184229	0.025148344303	6.360303e-06
74	38251681	0.025199058303	6.562303e-06
74	38317425	0.025248746303	5.738303e-06
74	38374785	0.025296555435	3.035435e-06
74	38437346	0.025347371246	3.339246e-06
74	38502257	0.025400645246	6.101246e-06
74	38568079	0.025449821246	4.765246e-06
74	38637158	0.025501557246	5.989246e-06
74	38700504	0.025548598707	2.518707e-06
74	38766461	0.025599834	3.242e-06
74	38837708	0.025654134	7.03e-06
74	38908707	0.025708432	1.0816e-05
74	38969582	0.025752486	4.358e-06
74	39028298	0.025800775918	2.135918e-06
74	39088919	0.025852240674	3.088674e-06
74	39156584	0.025909100674	9.436674e-06
74	39231718	0.025966472674	1.6296674e-05
74	39288840	0.026006940674	6.252674e-06
74	39349050	0.026053748	2.548e-06
74	39416531	0.026105250826	3.538826e-06
74	39488096	0.026165182826	1.2958826e-05
74	39557768	0.026219994826	1.7258826e-05
74	39604940	0.026258412826	5.164826e-06
74	39659636	0.026306042537	2.282537e-06
74	39715681	0.026357525069	3.253069e-06
74	39783443	0.026416947069	1.2163069e-05
74	39846342	0.026470733069	1.5437069e-05
74	39890945	0.026509665069	3.857069e-06
74	39941136	0.026559382	3.062e-06
74	39993461	0.026610609618	3.777618e-06
74	40056809	0.026669005618	1.1661618e-05
74	40110310	0.026714597618	6.741618e-06
74	40162097	0.026762747618	4.379618e-06
74	40213262	0.026812778185	3.898185e-06
74	40262686	0.026862498112	3.106112e-06
74	40314667	0.026915772112	5.868112e-06
74	40365819	0.026965460112	5.044112e-06
74	40418038	0.027014636112	3.708112e-06
74	40467935	0.027064084626	2.644626e-06
74	40522359	0.027116110142	4.158142e-06
74	40574745	0.027167846142	5.382142e-06
74	40626407	0.027217534142	4.558142e-06
74	40674260	0.027266531994	3.043994e-06
74	40725757	0.027317245994	3.245994e-06
74	40778688	0.027370007994	5.495994e-06
74	40828207	0.027420207994	5.183994e-06
74	40873838	0.027469383994	3.847994e-06
74	40916599	0.027518988231	2.940231e-06
74	40966267	0.027570245962	3.685962e-06
74	41020532	0.027626081962	9.009962e-06
74	41077700	0.027680891962	1.3307962e-05
74	41116919	0.027720847962	2.751962e-06
74	41167525	0.027771098719	2.490719e-06
74	41220759	0.027825396719	6.276719e-06
74	41281200	0.027885328719	1.5696719e-05
74	41329365	0.027931944719	1.1800719e-05
74	41368919	0.027973903798	3.247798e-06
74	41411974	0.028024243148	3.075148e-06
74	41462588	0.028079055148	7.375148e-06
74	41517411	0.028132841148	1.0649148e-05
74	41565026	0.028178943148	6.239148e-06
74	41615235	0.028227607148	4.391148e-06
74	41663941	0.028276141161	2.413161e-06
74	41711827	0.028327010798	2.770798e-06
74	41763434	0.02837883424	4.08224e-06
74	41813258	0.02843005824	4.79424e-06
74	41865747	0.02848077224	4.99624e-06
74	41907582	0.028528324	2.036e-06
74	41953637	0.028579820022	3.020022e-06
74	42003196	0.028632070022	4.758022e-06
74	42057745	0.028684318022	6.494022e-06
74	42106320	0.028732982022	4.646022e-06
74	42154423	0.028781386063	2.538063e-06
74	42205415	0.028832700558	3.340558e-06
74	42254941	0.028883412558	3.540558e-06
74	42309788	0.028935662558	5.278558e-06
74	42359715	0.028986374558	5.478558e-06
74	42404116	0.029034519944	3.111944e-06
74	42451068	0.029087793944	5.873944e-06
74	42501314	0.029139017944	6.585944e-06
74	42549617	0.029189219944	6.275944e-06
74	42591677	0.029235946944	2.490944e-06
74	42639639	0.029287332393	3.364393e-06
74	42689824	0.029340094393	5.614393e-06
74	42740108	0.029390294393	5.302393e-06
74	42788001	0.029438446393	2.942393e-06
74	42833714	0.029489214285	3.198285e-06
74	42881453	0.029541976285	5.448285e-06
74	42931309	0.029594226285	7.186285e-06
74	42973237	0.029642376285	4.824285e-06
74	43014037	0.029690963349	2.899349e-06
74	43059176	0.02974102016	2.44416e-06
74	43113270	0.02979583216	6.74416e-06
74	43161697	0.02984449616	4.89616e-06
74	43209167	0.02989266	2.548e-06
74	43255540	0.029944107044	3.483044e-06
74	43302047	0.029994819044	3.683044e-06
74	43355570	0.030047581044	5.933044e-06
74	43401265	0.030095733044	3.573044e-06
74	43443987	0.030144912631	2.240631e-06
74	43491933	0.030200748631	7.564631e-06
74	43528837	0.030246229683	2.533683e-06
74	43572013	0.030296357792	2.149792e-06
74	43620027	0.030347920901	3.200901e-06
74	43664065	0.030397735151	2.503151e-06
74	43705570	0.03044818442	2.44042e-06
74	43748214	0.030498804	2.548e-06
74	43790646	0.030549574781	2.806781e-06
74	43831561	0.030600085119	2.805119e-06
74	43876817	0.030651823119	4.031119e-06
74	43923391	0.030701511119	3.207119e-06
74	43969192	0.030752735119	3.919119e-06
74	44017540	0.030802219603	2.891603e-06
74	44062887	0.03085286312	3.02312e-06
74	44110597	0.03090459912	4.24712e-06
74	44156730	0.03095377712	2.91312e-06
74	44201279	0.031003926	2.55e-06
74	44247975	0.031056176	4.288e-06
74	44290117	0.031105352	2.952e-06

