version 2
run General-0-20200526-20:14:12-194716
attr configname General
attr datetime 20200526-20:14:12
attr experiment General
attr inifile examples/evaluation_fattree128/fat-tree.ini
attr iterationvars ""
attr iterationvarsf ""
attr measurement ""
attr network ib_model.examples.evaluation_fattree128.fat_tree_128
attr processid 194716
attr repetition 0
attr replication #0
attr resultdir results
attr runnumber 0
attr seedset 0
param **.servers[0].srcLid 1
param **.servers[1].srcLid 2
param **.servers[2].srcLid 3
param **.servers[3].srcLid 4
param **.servers[4].srcLid 5
param **.servers[5].srcLid 6
param **.servers[6].srcLid 7
param **.servers[7].srcLid 8
param **.servers[8].srcLid 9
param **.servers[9].srcLid 10
param **.servers[10].srcLid 11
param **.servers[11].srcLid 12
param **.servers[12].srcLid 13
param **.servers[13].srcLid 14
param **.servers[14].srcLid 15
param **.servers[15].srcLid 16
param **.servers[16].srcLid 17
param **.servers[17].srcLid 18
param **.servers[18].srcLid 19
param **.servers[19].srcLid 20
param **.servers[20].srcLid 21
param **.servers[21].srcLid 22
param **.servers[22].srcLid 23
param **.servers[23].srcLid 24
param **.servers[24].srcLid 25
param **.servers[25].srcLid 26
param **.servers[26].srcLid 27
param **.servers[27].srcLid 28
param **.servers[28].srcLid 29
param **.servers[29].srcLid 30
param **.servers[30].srcLid 31
param **.servers[31].srcLid 32
param **.servers[32].srcLid 33
param **.servers[33].srcLid 34
param **.servers[34].srcLid 35
param **.servers[35].srcLid 36
param **.servers[36].srcLid 37
param **.servers[37].srcLid 38
param **.servers[38].srcLid 39
param **.servers[39].srcLid 40
param **.servers[40].srcLid 41
param **.servers[41].srcLid 42
param **.servers[42].srcLid 43
param **.servers[43].srcLid 44
param **.servers[44].srcLid 45
param **.servers[45].srcLid 46
param **.servers[46].srcLid 47
param **.servers[47].srcLid 48
param **.servers[48].srcLid 49
param **.servers[49].srcLid 50
param **.servers[50].srcLid 51
param **.servers[51].srcLid 52
param **.servers[52].srcLid 53
param **.servers[53].srcLid 54
param **.servers[54].srcLid 55
param **.servers[55].srcLid 56
param **.servers[56].srcLid 57
param **.servers[57].srcLid 58
param **.servers[58].srcLid 59
param **.servers[59].srcLid 60
param **.servers[60].srcLid 61
param **.servers[61].srcLid 62
param **.servers[62].srcLid 63
param **.servers[63].srcLid 64
param **.servers[64].srcLid 65
param **.servers[65].srcLid 66
param **.servers[66].srcLid 67
param **.servers[67].srcLid 68
param **.servers[68].srcLid 69
param **.servers[69].srcLid 70
param **.servers[70].srcLid 71
param **.servers[71].srcLid 72
param **.servers[72].srcLid 73
param **.servers[73].srcLid 74
param **.servers[74].srcLid 75
param **.servers[75].srcLid 76
param **.servers[76].srcLid 77
param **.servers[77].srcLid 78
param **.servers[78].srcLid 79
param **.servers[79].srcLid 80
param **.servers[80].srcLid 81
param **.servers[81].srcLid 82
param **.servers[82].srcLid 83
param **.servers[83].srcLid 84
param **.servers[84].srcLid 85
param **.servers[85].srcLid 86
param **.servers[86].srcLid 87
param **.servers[87].srcLid 88
param **.servers[88].srcLid 89
param **.servers[89].srcLid 90
param **.servers[90].srcLid 91
param **.servers[91].srcLid 92
param **.servers[92].srcLid 93
param **.servers[93].srcLid 94
param **.servers[94].srcLid 95
param **.servers[95].srcLid 96
param **.servers[96].srcLid 97
param **.servers[97].srcLid 98
param **.servers[98].srcLid 99
param **.servers[99].srcLid 100
param **.servers[100].srcLid 101
param **.servers[101].srcLid 102
param **.servers[102].srcLid 103
param **.servers[103].srcLid 104
param **.servers[104].srcLid 105
param **.servers[105].srcLid 106
param **.servers[106].srcLid 107
param **.servers[107].srcLid 108
param **.servers[108].srcLid 109
param **.servers[109].srcLid 110
param **.servers[110].srcLid 111
param **.servers[111].srcLid 112
param **.servers[112].srcLid 113
param **.servers[113].srcLid 114
param **.servers[114].srcLid 115
param **.servers[115].srcLid 116
param **.servers[116].srcLid 117
param **.servers[117].srcLid 118
param **.servers[118].srcLid 119
param **.servers[119].srcLid 120
param **.servers[120].srcLid 121
param **.servers[121].srcLid 122
param **.servers[122].srcLid 123
param **.servers[123].srcLid 124
param **.servers[124].srcLid 125
param **.servers[125].srcLid 126
param **.servers[126].srcLid 127
param **.servers[127].srcLid 128
param **.flitSize 2048B
param **.width 4
param **.speed 10Gbps
param **.maxVL 1
param **.sink.hiccupDuration 0.001us
param **.sink.hiccupDelay 10000us
param **.sink.repFirstPackets 0
param **.obuf.credMinTime 4.096us
param **H_**.obuf.size 5
param **.ibuf.lossyMode false
param **.ISWDelay 50ns
param **.VSWDelay 50ns
param **SW**.vlarb.coreFreq 1200MHz
param **H_**.vlarb.coreFreq 1000MHz
param **SW**.vlarb.busWidth 24B
param **H_**.vlarb.busWidth 16B
param **.vlarb.vlHighLimit 16
param **.vlarb.highVLArbEntries "\"0:1 1:20 2:40 3:80\""
param **.vlarb.lowVLArbEntries "\"0:1 1:20 2:40 3:80\""
param **.vlarb.useFCFSRQArb false
param **.pktfwd.AdaptMode "\"none\""
param **.pktfwd.LIDBindTime 2us
param **.pktfwd.TQBusy1Thd 20
param **.pktfwd.TQBusy2Thd 40
param **.pktfwd.TQBusy3Thd 80
param **.pktfwd.ARAdaptThd 4
param **.pktfwd.OPSelAlgo "\"greedy\""
param **.pktfwd.GreedyRandSize 3
param **.pktfwd.statRepTime 10us
param **.pktfwd.OPSelOffsetByDLID 0
param **.L1_switches[0]**.fdbIndex 0
param **.L1_switches[1]**.fdbIndex 1
param **.L1_switches[2]**.fdbIndex 2
param **.L1_switches[3]**.fdbIndex 3
param **.L1_switches[4]**.fdbIndex 4
param **.L1_switches[5]**.fdbIndex 5
param **.L1_switches[6]**.fdbIndex 6
param **.L1_switches[7]**.fdbIndex 7
param **.L1_switches[8]**.fdbIndex 8
param **.L1_switches[9]**.fdbIndex 9
param **.L1_switches[10]**.fdbIndex 10
param **.L1_switches[11]**.fdbIndex 11
param **.L1_switches[12]**.fdbIndex 12
param **.L1_switches[13]**.fdbIndex 13
param **.L1_switches[14]**.fdbIndex 14
param **.L1_switches[15]**.fdbIndex 15
param **.L1_switches[16]**.fdbIndex 16
param **.L1_switches[17]**.fdbIndex 17
param **.L1_switches[18]**.fdbIndex 18
param **.L1_switches[19]**.fdbIndex 19
param **.L1_switches[20]**.fdbIndex 20
param **.L1_switches[21]**.fdbIndex 21
param **.L1_switches[22]**.fdbIndex 22
param **.L1_switches[23]**.fdbIndex 23
param **.L1_switches[24]**.fdbIndex 24
param **.L1_switches[25]**.fdbIndex 25
param **.L1_switches[26]**.fdbIndex 26
param **.L1_switches[27]**.fdbIndex 27
param **.L1_switches[28]**.fdbIndex 28
param **.L1_switches[29]**.fdbIndex 29
param **.L1_switches[30]**.fdbIndex 30
param **.L1_switches[31]**.fdbIndex 31
param **.L2_switches[0]**.fdbIndex 32
param **.L2_switches[1]**.fdbIndex 33
param **.L2_switches[2]**.fdbIndex 34
param **.L2_switches[3]**.fdbIndex 35
param **.L2_switches[4]**.fdbIndex 36
param **.L2_switches[5]**.fdbIndex 37
param **.L2_switches[6]**.fdbIndex 38
param **.L2_switches[7]**.fdbIndex 39
param **.L2_switches[8]**.fdbIndex 40
param **.L2_switches[9]**.fdbIndex 41
param **.L2_switches[10]**.fdbIndex 42
param **.L2_switches[11]**.fdbIndex 43
param **.L2_switches[12]**.fdbIndex 44
param **.L2_switches[13]**.fdbIndex 45
param **.L2_switches[14]**.fdbIndex 46
param **.L2_switches[15]**.fdbIndex 47
param **.L2_switches[16]**.fdbIndex 48
param **.L2_switches[17]**.fdbIndex 49
param **.L2_switches[18]**.fdbIndex 50
param **.L2_switches[19]**.fdbIndex 51
param **.L2_switches[20]**.fdbIndex 52
param **.L2_switches[21]**.fdbIndex 53
param **.L2_switches[22]**.fdbIndex 54
param **.L2_switches[23]**.fdbIndex 55
param **.L2_switches[24]**.fdbIndex 56
param **.L2_switches[25]**.fdbIndex 57
param **.L2_switches[26]**.fdbIndex 58
param **.L2_switches[27]**.fdbIndex 59
param **.L2_switches[28]**.fdbIndex 60
param **.L2_switches[29]**.fdbIndex 61
param **.L2_switches[30]**.fdbIndex 62
param **.L2_switches[31]**.fdbIndex 63
param **.L3_switches[0]**.fdbIndex 64
param **.L3_switches[1]**.fdbIndex 65
param **.L3_switches[2]**.fdbIndex 66
param **.L3_switches[3]**.fdbIndex 67
param **.L3_switches[4]**.fdbIndex 68
param **.L3_switches[5]**.fdbIndex 69
param **.L3_switches[6]**.fdbIndex 70
param **.L3_switches[7]**.fdbIndex 71
param **.L3_switches[8]**.fdbIndex 72
param **.L3_switches[9]**.fdbIndex 73
param **.L3_switches[10]**.fdbIndex 74
param **.L3_switches[11]**.fdbIndex 75
param **.L3_switches[12]**.fdbIndex 76
param **.L3_switches[13]**.fdbIndex 77
param **.L3_switches[14]**.fdbIndex 78
param **.L3_switches[15]**.fdbIndex 79
param **.servers[97]**.dstLid 117
param **.servers[97].app.msgLength 4194304B
param **.servers[97].app.msg2msgGap 1ns
param **.servers[97].app.msgNum 5
param **.servers[97].**.on_average_throughput 1
param **.servers[97]**.startTime 0.005000
param **.servers[97]**.endTime 0.025000
param **.servers[116]**.on_utilization 1
param **.servers[61]**.dstLid 105
param **.servers[61].app.msgLength 4194304B
param **.servers[61].app.msg2msgGap 1ns
param **.servers[61].app.msgNum 5
param **.servers[61].**.on_average_throughput 1
param **.servers[61]**.startTime 0.005000
param **.servers[61]**.endTime 0.025000
param **.servers[104]**.on_utilization 1
param **.servers[91]**.dstLid 40
param **.servers[91].app.msgLength 4194304B
param **.servers[91].app.msg2msgGap 1ns
param **.servers[91].app.msgNum 5
param **.servers[91].**.on_average_throughput 1
param **.servers[91]**.startTime 0.005000
param **.servers[91]**.endTime 0.025000
param **.servers[39]**.on_utilization 1
param **.servers[1]**.dstLid 27
param **.servers[1].app.msgLength 4194304B
param **.servers[1].app.msg2msgGap 1ns
param **.servers[1].app.msgNum 5
param **.servers[1].**.on_average_throughput 1
param **.servers[1]**.startTime 0.005000
param **.servers[1]**.endTime 0.025000
param **.servers[26]**.on_utilization 1
param **.servers[115]**.dstLid 27
param **.servers[115].app.msgLength 4194304B
param **.servers[115].app.msg2msgGap 1ns
param **.servers[115].app.msgNum 5
param **.servers[115].**.on_average_throughput 1
param **.servers[115]**.startTime 0.005000
param **.servers[115]**.endTime 0.025000
param **.servers[26]**.on_utilization 1
param **.servers[114]**.dstLid 40
param **.servers[114].app.msgLength 4194304B
param **.servers[114].app.msg2msgGap 1ns
param **.servers[114].app.msgNum 5
param **.servers[114].**.on_average_throughput 1
param **.servers[114]**.startTime 0.005000
param **.servers[114]**.endTime 0.025000
param **.servers[39]**.on_utilization 1
param **.servers[75]**.dstLid 71
param **.servers[75].app.msgLength 4194304B
param **.servers[75].app.msg2msgGap 1ns
param **.servers[75].app.msgNum 5
param **.servers[75].**.on_average_throughput 1
param **.servers[75]**.startTime 0.005000
param **.servers[75]**.endTime 0.025000
param **.servers[70]**.on_utilization 1
param **.servers[3]**.dstLid 16
param **.servers[3].app.msgLength 4194304B
param **.servers[3].app.msg2msgGap 1ns
param **.servers[3].app.msgNum 5
param **.servers[3].**.on_average_throughput 1
param **.servers[3]**.startTime 0.005000
param **.servers[3]**.endTime 0.025000
param **.servers[15]**.on_utilization 1
param **.servers[85]**.dstLid 117
param **.servers[85].app.msgLength 4194304B
param **.servers[85].app.msg2msgGap 1ns
param **.servers[85].app.msgNum 5
param **.servers[85].**.on_average_throughput 1
param **.servers[85]**.startTime 0.005000
param **.servers[85]**.endTime 0.025000
param **.servers[116]**.on_utilization 1
param **.servers[25]**.dstLid 90
param **.servers[25].app.msgLength 4194304B
param **.servers[25].app.msg2msgGap 1ns
param **.servers[25].app.msgNum 5
param **.servers[25].**.on_average_throughput 1
param **.servers[25]**.startTime 0.005000
param **.servers[25]**.endTime 0.025000
param **.servers[89]**.on_utilization 1
param **.servers[42]**.dstLid 105
param **.servers[42].app.msgLength 4194304B
param **.servers[42].app.msg2msgGap 1ns
param **.servers[42].app.msgNum 5
param **.servers[42].**.on_average_throughput 1
param **.servers[42]**.startTime 0.005000
param **.servers[42]**.endTime 0.025000
param **.servers[104]**.on_utilization 1
param **.servers[31]**.dstLid 40
param **.servers[31].app.msgLength 4194304B
param **.servers[31].app.msg2msgGap 1ns
param **.servers[31].app.msgNum 5
param **.servers[31].**.on_average_throughput 1
param **.servers[31]**.startTime 0.005000
param **.servers[31]**.endTime 0.025000
param **.servers[39]**.on_utilization 1
param **.servers[53]**.dstLid 117
param **.servers[53].app.msgLength 4194304B
param **.servers[53].app.msg2msgGap 1ns
param **.servers[53].app.msgNum 5
param **.servers[53].**.on_average_throughput 1
param **.servers[53]**.startTime 0.005000
param **.servers[53]**.endTime 0.025000
param **.servers[116]**.on_utilization 1
param **.servers[33]**.dstLid 63
param **.servers[33].app.msgLength 4194304B
param **.servers[33].app.msg2msgGap 1ns
param **.servers[33].app.msgNum 5
param **.servers[33].**.on_average_throughput 1
param **.servers[33]**.startTime 0.005000
param **.servers[33]**.endTime 0.025000
param **.servers[62]**.on_utilization 1
param **.servers[67]**.dstLid 16
param **.servers[67].app.msgLength 4194304B
param **.servers[67].app.msg2msgGap 1ns
param **.servers[67].app.msgNum 5
param **.servers[67].**.on_average_throughput 1
param **.servers[67]**.startTime 0.005000
param **.servers[67]**.endTime 0.025000
param **.servers[15]**.on_utilization 1
param **.servers[11]**.dstLid 71
param **.servers[11].app.msgLength 4194304B
param **.servers[11].app.msg2msgGap 1ns
param **.servers[11].app.msgNum 5
param **.servers[11].**.on_average_throughput 1
param **.servers[11]**.startTime 0.005000
param **.servers[11]**.endTime 0.025000
param **.servers[70]**.on_utilization 1
param **.servers[69]**.dstLid 40
param **.servers[69].app.msgLength 4194304B
param **.servers[69].app.msg2msgGap 1ns
param **.servers[69].app.msgNum 5
param **.servers[69].**.on_average_throughput 1
param **.servers[69]**.startTime 0.005000
param **.servers[69]**.endTime 0.025000
param **.servers[39]**.on_utilization 1
param **.servers[105]**.dstLid 117
param **.servers[105].app.msgLength 4194304B
param **.servers[105].app.msg2msgGap 1ns
param **.servers[105].app.msgNum 5
param **.servers[105].**.on_average_throughput 1
param **.servers[105]**.startTime 0.005000
param **.servers[105]**.endTime 0.025000
param **.servers[116]**.on_utilization 1
param **.servers[40]**.dstLid 40
param **.servers[40].app.msgLength 4194304B
param **.servers[40].app.msg2msgGap 1ns
param **.servers[40].app.msgNum 5
param **.servers[40].**.on_average_throughput 1
param **.servers[40]**.startTime 0.005000
param **.servers[40]**.endTime 0.025000
param **.servers[39]**.on_utilization 1
param **.servers[10]**.dstLid 105
param **.servers[10].app.msgLength 4194304B
param **.servers[10].app.msg2msgGap 1ns
param **.servers[10].app.msgNum 5
param **.servers[10].**.on_average_throughput 1
param **.servers[10]**.startTime 0.005000
param **.servers[10]**.endTime 0.025000
param **.servers[104]**.on_utilization 1
param **.servers[120]**.dstLid 27
param **.servers[120].app.msgLength 4194304B
param **.servers[120].app.msg2msgGap 1ns
param **.servers[120].app.msgNum 5
param **.servers[120].**.on_average_throughput 1
param **.servers[120]**.startTime 0.005000
param **.servers[120]**.endTime 0.025000
param **.servers[26]**.on_utilization 1
param **.servers[16]**.dstLid 40
param **.servers[16].app.msgLength 4194304B
param **.servers[16].app.msg2msgGap 1ns
param **.servers[16].app.msgNum 5
param **.servers[16].**.on_average_throughput 1
param **.servers[16]**.startTime 0.005000
param **.servers[16]**.endTime 0.025000
param **.servers[39]**.on_utilization 1
param **.servers[123]**.dstLid 27
param **.servers[123].app.msgLength 4194304B
param **.servers[123].app.msg2msgGap 1ns
param **.servers[123].app.msgNum 5
param **.servers[123].**.on_average_throughput 1
param **.servers[123]**.startTime 0.005000
param **.servers[123]**.endTime 0.025000
param **.servers[26]**.on_utilization 1
param **.servers[56]**.dstLid 27
param **.servers[56].app.msgLength 4194304B
param **.servers[56].app.msg2msgGap 1ns
param **.servers[56].app.msgNum 5
param **.servers[56].**.on_average_throughput 1
param **.servers[56]**.startTime 0.005000
param **.servers[56]**.endTime 0.025000
param **.servers[26]**.on_utilization 1
param **.servers[0]**.dstLid 49
param **.servers[0].app.msgLength 4096B
param **.servers[0].app.msg2msgGap 50000ns
param **.servers[0].app.msgNum 200
param **.servers[0]**.startTime 0.015000
param **.servers[0]**.endTime 0.016000
param **.servers[2]**.dstLid 95
param **.servers[2].app.msgLength 4096B
param **.servers[2].app.msg2msgGap 50000ns
param **.servers[2].app.msgNum 200
param **.servers[2]**.startTime 0.007000
param **.servers[2]**.endTime 0.008000
param **.servers[4]**.dstLid 118
param **.servers[4].app.msgLength 4096B
param **.servers[4].app.msg2msgGap 50000ns
param **.servers[4].app.msgNum 200
param **.servers[4]**.startTime 0.017000
param **.servers[4]**.endTime 0.018000
param **.servers[5]**.dstLid 6
param **.servers[5].app.msgLength 4096B
param **.servers[5].app.msg2msgGap 50000ns
param **.servers[5].app.msgNum 200
param **.servers[5]**.startTime 0.011000
param **.servers[5]**.endTime 0.012000
param **.servers[6]**.dstLid 56
param **.servers[6].app.msgLength 4096B
param **.servers[6].app.msg2msgGap 50000ns
param **.servers[6].app.msgNum 200
param **.servers[6]**.startTime 0.007000
param **.servers[6]**.endTime 0.008000
param **.servers[7]**.dstLid 48
param **.servers[7].app.msgLength 4096B
param **.servers[7].app.msg2msgGap 50000ns
param **.servers[7].app.msgNum 200
param **.servers[7]**.startTime 0.013000
param **.servers[7]**.endTime 0.014000
param **.servers[8]**.dstLid 112
param **.servers[8].app.msgLength 4096B
param **.servers[8].app.msg2msgGap 50000ns
param **.servers[8].app.msgNum 200
param **.servers[8]**.startTime 0.017000
param **.servers[8]**.endTime 0.018000
param **.servers[9]**.dstLid 84
param **.servers[9].app.msgLength 4096B
param **.servers[9].app.msg2msgGap 50000ns
param **.servers[9].app.msgNum 200
param **.servers[9]**.startTime 0.015000
param **.servers[9]**.endTime 0.016000
param **.servers[12]**.dstLid 60
param **.servers[12].app.msgLength 4096B
param **.servers[12].app.msg2msgGap 50000ns
param **.servers[12].app.msgNum 200
param **.servers[12]**.startTime 0.009000
param **.servers[12]**.endTime 0.010000
param **.servers[13]**.dstLid 79
param **.servers[13].app.msgLength 4096B
param **.servers[13].app.msg2msgGap 50000ns
param **.servers[13].app.msgNum 200
param **.servers[13]**.startTime 0.017000
param **.servers[13]**.endTime 0.018000
param **.servers[14]**.dstLid 93
param **.servers[14].app.msgLength 4096B
param **.servers[14].app.msg2msgGap 50000ns
param **.servers[14].app.msgNum 200
param **.servers[14]**.startTime 0.019000
param **.servers[14]**.endTime 0.020000
param **.servers[17]**.dstLid 38
param **.servers[17].app.msgLength 4096B
param **.servers[17].app.msg2msgGap 50000ns
param **.servers[17].app.msgNum 200
param **.servers[17]**.startTime 0.017000
param **.servers[17]**.endTime 0.018000
param **.servers[18]**.dstLid 112
param **.servers[18].app.msgLength 4096B
param **.servers[18].app.msg2msgGap 50000ns
param **.servers[18].app.msgNum 200
param **.servers[18]**.startTime 0.007000
param **.servers[18]**.endTime 0.008000
param **.servers[19]**.dstLid 110
param **.servers[19].app.msgLength 4096B
param **.servers[19].app.msg2msgGap 50000ns
param **.servers[19].app.msgNum 200
param **.servers[19]**.startTime 0.009000
param **.servers[19]**.endTime 0.010000
param **.servers[20]**.dstLid 20
param **.servers[20].app.msgLength 4096B
param **.servers[20].app.msg2msgGap 50000ns
param **.servers[20].app.msgNum 200
param **.servers[20]**.startTime 0.007000
param **.servers[20]**.endTime 0.008000
param **.servers[21]**.dstLid 102
param **.servers[21].app.msgLength 4096B
param **.servers[21].app.msg2msgGap 50000ns
param **.servers[21].app.msgNum 200
param **.servers[21]**.startTime 0.011000
param **.servers[21]**.endTime 0.012000
param **.servers[22]**.dstLid 85
param **.servers[22].app.msgLength 4096B
param **.servers[22].app.msg2msgGap 50000ns
param **.servers[22].app.msgNum 200
param **.servers[22]**.startTime 0.009000
param **.servers[22]**.endTime 0.010000
param **.servers[23]**.dstLid 118
param **.servers[23].app.msgLength 4096B
param **.servers[23].app.msg2msgGap 50000ns
param **.servers[23].app.msgNum 200
param **.servers[23]**.startTime 0.017000
param **.servers[23]**.endTime 0.018000
param **.servers[24]**.dstLid 97
param **.servers[24].app.msgLength 4096B
param **.servers[24].app.msg2msgGap 50000ns
param **.servers[24].app.msgNum 200
param **.servers[24]**.startTime 0.009000
param **.servers[24]**.endTime 0.010000
param **.servers[27]**.dstLid 9
param **.servers[27].app.msgLength 4096B
param **.servers[27].app.msg2msgGap 50000ns
param **.servers[27].app.msgNum 200
param **.servers[27]**.startTime 0.019000
param **.servers[27]**.endTime 0.020000
param **.servers[28]**.dstLid 14
param **.servers[28].app.msgLength 4096B
param **.servers[28].app.msg2msgGap 50000ns
param **.servers[28].app.msgNum 200
param **.servers[28]**.startTime 0.015000
param **.servers[28]**.endTime 0.016000
param **.servers[29]**.dstLid 128
param **.servers[29].app.msgLength 4096B
param **.servers[29].app.msg2msgGap 50000ns
param **.servers[29].app.msgNum 200
param **.servers[29]**.startTime 0.011000
param **.servers[29]**.endTime 0.012000
param **.servers[30]**.dstLid 87
param **.servers[30].app.msgLength 4096B
param **.servers[30].app.msg2msgGap 50000ns
param **.servers[30].app.msgNum 200
param **.servers[30]**.startTime 0.009000
param **.servers[30]**.endTime 0.010000
param **.servers[32]**.dstLid 69
param **.servers[32].app.msgLength 4096B
param **.servers[32].app.msg2msgGap 50000ns
param **.servers[32].app.msgNum 200
param **.servers[32]**.startTime 0.021000
param **.servers[32]**.endTime 0.022000
param **.servers[34]**.dstLid 69
param **.servers[34].app.msgLength 4096B
param **.servers[34].app.msg2msgGap 50000ns
param **.servers[34].app.msgNum 200
param **.servers[34]**.startTime 0.017000
param **.servers[34]**.endTime 0.018000
param **.servers[35]**.dstLid 99
param **.servers[35].app.msgLength 4096B
param **.servers[35].app.msg2msgGap 50000ns
param **.servers[35].app.msgNum 200
param **.servers[35]**.startTime 0.013000
param **.servers[35]**.endTime 0.014000
param **.servers[36]**.dstLid 51
param **.servers[36].app.msgLength 4096B
param **.servers[36].app.msg2msgGap 50000ns
param **.servers[36].app.msgNum 200
param **.servers[36]**.startTime 0.011000
param **.servers[36]**.endTime 0.012000
param **.servers[37]**.dstLid 73
param **.servers[37].app.msgLength 4096B
param **.servers[37].app.msg2msgGap 50000ns
param **.servers[37].app.msgNum 200
param **.servers[37]**.startTime 0.013000
param **.servers[37]**.endTime 0.014000
param **.servers[38]**.dstLid 74
param **.servers[38].app.msgLength 4096B
param **.servers[38].app.msg2msgGap 50000ns
param **.servers[38].app.msgNum 200
param **.servers[38]**.startTime 0.015000
param **.servers[38]**.endTime 0.016000
param **.servers[41]**.dstLid 45
param **.servers[41].app.msgLength 4096B
param **.servers[41].app.msg2msgGap 50000ns
param **.servers[41].app.msgNum 200
param **.servers[41]**.startTime 0.013000
param **.servers[41]**.endTime 0.014000
param **.servers[43]**.dstLid 8
param **.servers[43].app.msgLength 4096B
param **.servers[43].app.msg2msgGap 50000ns
param **.servers[43].app.msgNum 200
param **.servers[43]**.startTime 0.011000
param **.servers[43]**.endTime 0.012000
param **.servers[44]**.dstLid 9
param **.servers[44].app.msgLength 4096B
param **.servers[44].app.msg2msgGap 50000ns
param **.servers[44].app.msgNum 200
param **.servers[44]**.startTime 0.009000
param **.servers[44]**.endTime 0.010000
param **.servers[45]**.dstLid 58
param **.servers[45].app.msgLength 4096B
param **.servers[45].app.msg2msgGap 50000ns
param **.servers[45].app.msgNum 200
param **.servers[45]**.startTime 0.015000
param **.servers[45]**.endTime 0.016000
param **.servers[46]**.dstLid 82
param **.servers[46].app.msgLength 4096B
param **.servers[46].app.msg2msgGap 50000ns
param **.servers[46].app.msgNum 200
param **.servers[46]**.startTime 0.011000
param **.servers[46]**.endTime 0.012000
param **.servers[47]**.dstLid 89
param **.servers[47].app.msgLength 4096B
param **.servers[47].app.msg2msgGap 50000ns
param **.servers[47].app.msgNum 200
param **.servers[47]**.startTime 0.011000
param **.servers[47]**.endTime 0.012000
param **.servers[48]**.dstLid 65
param **.servers[48].app.msgLength 4096B
param **.servers[48].app.msg2msgGap 50000ns
param **.servers[48].app.msgNum 200
param **.servers[48]**.startTime 0.007000
param **.servers[48]**.endTime 0.008000
param **.servers[49]**.dstLid 81
param **.servers[49].app.msgLength 4096B
param **.servers[49].app.msg2msgGap 50000ns
param **.servers[49].app.msgNum 200
param **.servers[49]**.startTime 0.015000
param **.servers[49]**.endTime 0.016000
param **.servers[50]**.dstLid 30
param **.servers[50].app.msgLength 4096B
param **.servers[50].app.msg2msgGap 50000ns
param **.servers[50].app.msgNum 200
param **.servers[50]**.startTime 0.019000
param **.servers[50]**.endTime 0.020000
param **.servers[51]**.dstLid 6
param **.servers[51].app.msgLength 4096B
param **.servers[51].app.msg2msgGap 50000ns
param **.servers[51].app.msgNum 200
param **.servers[51]**.startTime 0.017000
param **.servers[51]**.endTime 0.018000
param **.servers[52]**.dstLid 55
param **.servers[52].app.msgLength 4096B
param **.servers[52].app.msg2msgGap 50000ns
param **.servers[52].app.msgNum 200
param **.servers[52]**.startTime 0.007000
param **.servers[52]**.endTime 0.008000
param **.servers[54]**.dstLid 119
param **.servers[54].app.msgLength 4096B
param **.servers[54].app.msg2msgGap 50000ns
param **.servers[54].app.msgNum 200
param **.servers[54]**.startTime 0.019000
param **.servers[54]**.endTime 0.020000
param **.servers[55]**.dstLid 128
param **.servers[55].app.msgLength 4096B
param **.servers[55].app.msg2msgGap 50000ns
param **.servers[55].app.msgNum 200
param **.servers[55]**.startTime 0.017000
param **.servers[55]**.endTime 0.018000
param **.servers[57]**.dstLid 39
param **.servers[57].app.msgLength 4096B
param **.servers[57].app.msg2msgGap 50000ns
param **.servers[57].app.msgNum 200
param **.servers[57]**.startTime 0.009000
param **.servers[57]**.endTime 0.010000
param **.servers[58]**.dstLid 36
param **.servers[58].app.msgLength 4096B
param **.servers[58].app.msg2msgGap 50000ns
param **.servers[58].app.msgNum 200
param **.servers[58]**.startTime 0.015000
param **.servers[58]**.endTime 0.016000
param **.servers[59]**.dstLid 65
param **.servers[59].app.msgLength 4096B
param **.servers[59].app.msg2msgGap 50000ns
param **.servers[59].app.msgNum 200
param **.servers[59]**.startTime 0.019000
param **.servers[59]**.endTime 0.020000
param **.servers[60]**.dstLid 112
param **.servers[60].app.msgLength 4096B
param **.servers[60].app.msg2msgGap 50000ns
param **.servers[60].app.msgNum 200
param **.servers[60]**.startTime 0.015000
param **.servers[60]**.endTime 0.016000
param **.servers[63]**.dstLid 94
param **.servers[63].app.msgLength 4096B
param **.servers[63].app.msg2msgGap 50000ns
param **.servers[63].app.msgNum 200
param **.servers[63]**.startTime 0.021000
param **.servers[63]**.endTime 0.022000
param **.servers[64]**.dstLid 77
param **.servers[64].app.msgLength 4096B
param **.servers[64].app.msg2msgGap 50000ns
param **.servers[64].app.msgNum 200
param **.servers[64]**.startTime 0.011000
param **.servers[64]**.endTime 0.012000
param **.servers[65]**.dstLid 22
param **.servers[65].app.msgLength 4096B
param **.servers[65].app.msg2msgGap 50000ns
param **.servers[65].app.msgNum 200
param **.servers[65]**.startTime 0.009000
param **.servers[65]**.endTime 0.010000
param **.servers[66]**.dstLid 5
param **.servers[66].app.msgLength 4096B
param **.servers[66].app.msg2msgGap 50000ns
param **.servers[66].app.msgNum 200
param **.servers[66]**.startTime 0.015000
param **.servers[66]**.endTime 0.016000
param **.servers[68]**.dstLid 104
param **.servers[68].app.msgLength 4096B
param **.servers[68].app.msg2msgGap 50000ns
param **.servers[68].app.msgNum 200
param **.servers[68]**.startTime 0.011000
param **.servers[68]**.endTime 0.012000
param **.servers[71]**.dstLid 73
param **.servers[71].app.msgLength 4096B
param **.servers[71].app.msg2msgGap 50000ns
param **.servers[71].app.msgNum 200
param **.servers[71]**.startTime 0.011000
param **.servers[71]**.endTime 0.012000
param **.servers[72]**.dstLid 96
param **.servers[72].app.msgLength 4096B
param **.servers[72].app.msg2msgGap 50000ns
param **.servers[72].app.msgNum 200
param **.servers[72]**.startTime 0.011000
param **.servers[72]**.endTime 0.012000
param **.servers[73]**.dstLid 78
param **.servers[73].app.msgLength 4096B
param **.servers[73].app.msg2msgGap 50000ns
param **.servers[73].app.msgNum 200
param **.servers[73]**.startTime 0.011000
param **.servers[73]**.endTime 0.012000
param **.servers[74]**.dstLid 101
param **.servers[74].app.msgLength 4096B
param **.servers[74].app.msg2msgGap 50000ns
param **.servers[74].app.msgNum 200
param **.servers[74]**.startTime 0.013000
param **.servers[74]**.endTime 0.014000
param **.servers[76]**.dstLid 114
param **.servers[76].app.msgLength 4096B
param **.servers[76].app.msg2msgGap 50000ns
param **.servers[76].app.msgNum 200
param **.servers[76]**.startTime 0.013000
param **.servers[76]**.endTime 0.014000
param **.servers[77]**.dstLid 78
param **.servers[77].app.msgLength 4096B
param **.servers[77].app.msg2msgGap 50000ns
param **.servers[77].app.msgNum 200
param **.servers[77]**.startTime 0.017000
param **.servers[77]**.endTime 0.018000
param **.servers[78]**.dstLid 81
param **.servers[78].app.msgLength 4096B
param **.servers[78].app.msg2msgGap 50000ns
param **.servers[78].app.msgNum 200
param **.servers[78]**.startTime 0.019000
param **.servers[78]**.endTime 0.020000
param **.servers[79]**.dstLid 83
param **.servers[79].app.msgLength 4096B
param **.servers[79].app.msg2msgGap 50000ns
param **.servers[79].app.msgNum 200
param **.servers[79]**.startTime 0.015000
param **.servers[79]**.endTime 0.016000
param **.servers[80]**.dstLid 120
param **.servers[80].app.msgLength 4096B
param **.servers[80].app.msg2msgGap 50000ns
param **.servers[80].app.msgNum 200
param **.servers[80]**.startTime 0.021000
param **.servers[80]**.endTime 0.022000
param **.servers[81]**.dstLid 56
param **.servers[81].app.msgLength 4096B
param **.servers[81].app.msg2msgGap 50000ns
param **.servers[81].app.msgNum 200
param **.servers[81]**.startTime 0.009000
param **.servers[81]**.endTime 0.010000
param **.servers[82]**.dstLid 119
param **.servers[82].app.msgLength 4096B
param **.servers[82].app.msg2msgGap 50000ns
param **.servers[82].app.msgNum 200
param **.servers[82]**.startTime 0.007000
param **.servers[82]**.endTime 0.008000
param **.servers[83]**.dstLid 25
param **.servers[83].app.msgLength 4096B
param **.servers[83].app.msg2msgGap 50000ns
param **.servers[83].app.msgNum 200
param **.servers[83]**.startTime 0.017000
param **.servers[83]**.endTime 0.018000
param **.servers[84]**.dstLid 9
param **.servers[84].app.msgLength 4096B
param **.servers[84].app.msg2msgGap 50000ns
param **.servers[84].app.msgNum 200
param **.servers[84]**.startTime 0.009000
param **.servers[84]**.endTime 0.010000
param **.servers[86]**.dstLid 110
param **.servers[86].app.msgLength 4096B
param **.servers[86].app.msg2msgGap 50000ns
param **.servers[86].app.msgNum 200
param **.servers[86]**.startTime 0.017000
param **.servers[86]**.endTime 0.018000
param **.servers[87]**.dstLid 89
param **.servers[87].app.msgLength 4096B
param **.servers[87].app.msg2msgGap 50000ns
param **.servers[87].app.msgNum 200
param **.servers[87]**.startTime 0.011000
param **.servers[87]**.endTime 0.012000
param **.servers[88]**.dstLid 10
param **.servers[88].app.msgLength 4096B
param **.servers[88].app.msg2msgGap 50000ns
param **.servers[88].app.msgNum 200
param **.servers[88]**.startTime 0.021000
param **.servers[88]**.endTime 0.022000
param **.servers[90]**.dstLid 30
param **.servers[90].app.msgLength 4096B
param **.servers[90].app.msg2msgGap 50000ns
param **.servers[90].app.msgNum 200
param **.servers[90]**.startTime 0.007000
param **.servers[90]**.endTime 0.008000
param **.servers[92]**.dstLid 44
param **.servers[92].app.msgLength 4096B
param **.servers[92].app.msg2msgGap 50000ns
param **.servers[92].app.msgNum 200
param **.servers[92]**.startTime 0.013000
param **.servers[92]**.endTime 0.014000
param **.servers[93]**.dstLid 126
param **.servers[93].app.msgLength 4096B
param **.servers[93].app.msg2msgGap 50000ns
param **.servers[93].app.msgNum 200
param **.servers[93]**.startTime 0.021000
param **.servers[93]**.endTime 0.022000
param **.servers[94]**.dstLid 91
param **.servers[94].app.msgLength 4096B
param **.servers[94].app.msg2msgGap 50000ns
param **.servers[94].app.msgNum 200
param **.servers[94]**.startTime 0.013000
param **.servers[94]**.endTime 0.014000
param **.servers[95]**.dstLid 10
param **.servers[95].app.msgLength 4096B
param **.servers[95].app.msg2msgGap 50000ns
param **.servers[95].app.msgNum 200
param **.servers[95]**.startTime 0.019000
param **.servers[95]**.endTime 0.020000
param **.servers[96]**.dstLid 29
param **.servers[96].app.msgLength 4096B
param **.servers[96].app.msg2msgGap 50000ns
param **.servers[96].app.msgNum 200
param **.servers[96]**.startTime 0.017000
param **.servers[96]**.endTime 0.018000
param **.servers[98]**.dstLid 127
param **.servers[98].app.msgLength 4096B
param **.servers[98].app.msg2msgGap 50000ns
param **.servers[98].app.msgNum 200
param **.servers[98]**.startTime 0.007000
param **.servers[98]**.endTime 0.008000
param **.servers[99]**.dstLid 53
param **.servers[99].app.msgLength 4096B
param **.servers[99].app.msg2msgGap 50000ns
param **.servers[99].app.msgNum 200
param **.servers[99]**.startTime 0.019000
param **.servers[99]**.endTime 0.020000
param **.servers[100]**.dstLid 47
param **.servers[100].app.msgLength 4096B
param **.servers[100].app.msg2msgGap 50000ns
param **.servers[100].app.msgNum 200
param **.servers[100]**.startTime 0.013000
param **.servers[100]**.endTime 0.014000
param **.servers[101]**.dstLid 6
param **.servers[101].app.msgLength 4096B
param **.servers[101].app.msg2msgGap 50000ns
param **.servers[101].app.msgNum 200
param **.servers[101]**.startTime 0.015000
param **.servers[101]**.endTime 0.016000
param **.servers[102]**.dstLid 50
param **.servers[102].app.msgLength 4096B
param **.servers[102].app.msg2msgGap 50000ns
param **.servers[102].app.msgNum 200
param **.servers[102]**.startTime 0.009000
param **.servers[102]**.endTime 0.010000
param **.servers[103]**.dstLid 13
param **.servers[103].app.msgLength 4096B
param **.servers[103].app.msg2msgGap 50000ns
param **.servers[103].app.msgNum 200
param **.servers[103]**.startTime 0.017000
param **.servers[103]**.endTime 0.018000
param **.servers[106]**.dstLid 122
param **.servers[106].app.msgLength 4096B
param **.servers[106].app.msg2msgGap 50000ns
param **.servers[106].app.msgNum 200
param **.servers[106]**.startTime 0.019000
param **.servers[106]**.endTime 0.020000
param **.servers[107]**.dstLid 101
param **.servers[107].app.msgLength 4096B
param **.servers[107].app.msg2msgGap 50000ns
param **.servers[107].app.msgNum 200
param **.servers[107]**.startTime 0.021000
param **.servers[107]**.endTime 0.022000
param **.servers[108]**.dstLid 21
param **.servers[108].app.msgLength 4096B
param **.servers[108].app.msg2msgGap 50000ns
param **.servers[108].app.msgNum 200
param **.servers[108]**.startTime 0.021000
param **.servers[108]**.endTime 0.022000
param **.servers[109]**.dstLid 6
param **.servers[109].app.msgLength 4096B
param **.servers[109].app.msg2msgGap 50000ns
param **.servers[109].app.msgNum 200
param **.servers[109]**.startTime 0.009000
param **.servers[109]**.endTime 0.010000
param **.servers[110]**.dstLid 5
param **.servers[110].app.msgLength 4096B
param **.servers[110].app.msg2msgGap 50000ns
param **.servers[110].app.msgNum 200
param **.servers[110]**.startTime 0.017000
param **.servers[110]**.endTime 0.018000
param **.servers[111]**.dstLid 44
param **.servers[111].app.msgLength 4096B
param **.servers[111].app.msg2msgGap 50000ns
param **.servers[111].app.msgNum 200
param **.servers[111]**.startTime 0.011000
param **.servers[111]**.endTime 0.012000
param **.servers[112]**.dstLid 35
param **.servers[112].app.msgLength 4096B
param **.servers[112].app.msg2msgGap 50000ns
param **.servers[112].app.msgNum 200
param **.servers[112]**.startTime 0.021000
param **.servers[112]**.endTime 0.022000
param **.servers[113]**.dstLid 31
param **.servers[113].app.msgLength 4096B
param **.servers[113].app.msg2msgGap 50000ns
param **.servers[113].app.msgNum 200
param **.servers[113]**.startTime 0.021000
param **.servers[113]**.endTime 0.022000
param **.servers[117]**.dstLid 66
param **.servers[117].app.msgLength 4096B
param **.servers[117].app.msg2msgGap 50000ns
param **.servers[117].app.msgNum 200
param **.servers[117]**.startTime 0.007000
param **.servers[117]**.endTime 0.008000
param **.servers[118]**.dstLid 5
param **.servers[118].app.msgLength 4096B
param **.servers[118].app.msg2msgGap 50000ns
param **.servers[118].app.msgNum 200
param **.servers[118]**.startTime 0.013000
param **.servers[118]**.endTime 0.014000
param **.servers[119]**.dstLid 30
param **.servers[119].app.msgLength 4096B
param **.servers[119].app.msg2msgGap 50000ns
param **.servers[119].app.msgNum 200
param **.servers[119]**.startTime 0.011000
param **.servers[119]**.endTime 0.012000
param **.servers[121]**.dstLid 77
param **.servers[121].app.msgLength 4096B
param **.servers[121].app.msg2msgGap 50000ns
param **.servers[121].app.msgNum 200
param **.servers[121]**.startTime 0.017000
param **.servers[121]**.endTime 0.018000
param **.servers[122]**.dstLid 37
param **.servers[122].app.msgLength 4096B
param **.servers[122].app.msg2msgGap 50000ns
param **.servers[122].app.msgNum 200
param **.servers[122]**.startTime 0.021000
param **.servers[122]**.endTime 0.022000
param **.servers[124]**.dstLid 45
param **.servers[124].app.msgLength 4096B
param **.servers[124].app.msg2msgGap 50000ns
param **.servers[124].app.msgNum 200
param **.servers[124]**.startTime 0.007000
param **.servers[124]**.endTime 0.008000
param **.servers[125]**.dstLid 83
param **.servers[125].app.msgLength 4096B
param **.servers[125].app.msg2msgGap 50000ns
param **.servers[125].app.msgNum 200
param **.servers[125]**.startTime 0.009000
param **.servers[125]**.endTime 0.010000
param **.servers[126]**.dstLid 102
param **.servers[126].app.msgLength 4096B
param **.servers[126].app.msg2msgGap 50000ns
param **.servers[126].app.msgNum 200
param **.servers[126]**.startTime 0.009000
param **.servers[126]**.endTime 0.010000
param **.servers[127]**.dstLid 24
param **.servers[127].app.msgLength 4096B
param **.servers[127].app.msg2msgGap 50000ns
param **.servers[127].app.msgNum 200
param **.servers[127]**.startTime 0.019000
param **.servers[127]**.endTime 0.020000
param **.**switches[*]**.fdbsVecFile "\"examples/evaluation_fattree128/fat_tree_128.fdbs\""
param **.startStatCol 100us
param **.dstMode "\"param\""
param **.app.dstSeqVecFile "\"\""
param **.app.dstSeqVecIdx 0
param **.msgLenMode "\"param\""
param **.msgMtuLen 2048B
param **.msgLenSet "\"4096 4096 4096\""
param **.msgLenProb "\"1 1 1 1\""
param **.msgSQ 0
param **.maxContPkts 10
param **.popDlyPerByte 0.25ns
param **.genDlyPerByte 0.25ns
param **.maxQueuedPerVL 10
param **.flit2FlitGap 0.001ns
param **.pkt2PktGap 0.001ns
param **.timeStep_us 49us
param **.CCT_Timer 30us
param **.vlarb.markrate 1
param **ibuf.maxBeingSent 1
param **ibuf.totalBufferSize 1000
param **.servers[*]**.ibuf.maxStatic* 32
param **.**switches[*]**.subport[*].ibuf.maxStatic* 32
param **.**switches[*]**.obuf.size 5
param **.servers[*]**.obuf.size 5
param **.pktFwdType "\"Pktfwd\""
param **.servers[*]**.vlarb.busWidth 16B
param **.servers[*]**.vlarb.coreFreq 1000MHz
param **.**switches[*]**.vlarb.coreFreq 1200MHz
param **.**switches[*]**.vlarb.busWidth 24B

vector 0 fat_tree_128.servers[89].sink "latency of Large message" ETV
vector 1 fat_tree_128.servers[62].sink "latency of Large message" ETV
vector 2 fat_tree_128.servers[15].sink "latency of Large message" ETV
vector 3 fat_tree_128.servers[70].sink "latency of Large message" ETV
vector 4 fat_tree_128.servers[54].sink "Latency of each message" ETV
vector 5 fat_tree_128.servers[19].sink "Latency of each message" ETV
vector 6 fat_tree_128.servers[55].sink "Latency of each message" ETV
vector 7 fat_tree_128.servers[29].sink "Latency of each message" ETV
vector 8 fat_tree_128.servers[65].sink "Latency of each message" ETV
vector 9 fat_tree_128.servers[44].sink "Latency of each message" ETV
vector 10 fat_tree_128.servers[118].sink "Latency of each message" ETV
vector 11 fat_tree_128.servers[126].sink "Latency of each message" ETV
vector 12 fat_tree_128.servers[64].sink "Latency of each message" ETV
vector 13 fat_tree_128.servers[39].sink "latency of Large message" ETV
vector 14 fat_tree_128.servers[94].sink "Latency of each message" ETV
vector 15 fat_tree_128.servers[111].sink "Latency of each message" ETV
vector 16 fat_tree_128.servers[104].sink "latency of Large message" ETV
vector 17 fat_tree_128.servers[26].sink "latency of Large message" ETV
vector 18 fat_tree_128.servers[116].sink "latency of Large message" ETV
vector 19 fat_tree_128.servers[59].sink "Latency of each message" ETV
vector 20 fat_tree_128.servers[86].sink "Latency of each message" ETV
vector 21 fat_tree_128.servers[21].sink "Latency of each message" ETV
vector 22 fat_tree_128.servers[101].sink "Latency of each message" ETV
vector 23 fat_tree_128.servers[84].sink "Latency of each message" ETV
vector 24 fat_tree_128.servers[49].sink "Latency of each message" ETV
vector 25 fat_tree_128.servers[5].sink "Latency of each message" ETV
vector 26 fat_tree_128.servers[109].sink "Latency of each message" ETV
vector 27 fat_tree_128.servers[8].sink "Latency of each message" ETV
vector 28 fat_tree_128.servers[82].sink "Latency of each message" ETV
vector 29 fat_tree_128.servers[96].sink "Latency of each message" ETV
vector 30 fat_tree_128.servers[38].sink "Latency of each message" ETV
vector 31 fat_tree_128.servers[76].sink "Latency of each message" ETV
vector 32 fat_tree_128.servers[72].sink "Latency of each message" ETV
vector 33 fat_tree_128.servers[77].sink "Latency of each message" ETV
vector 34 fat_tree_128.servers[50].sink "Latency of each message" ETV
vector 35 fat_tree_128.servers[81].sink "Latency of each message" ETV
vector 36 fat_tree_128.servers[88].sink "Latency of each message" ETV
vector 37 fat_tree_128.servers[7].sink "Latency of each message" ETV
vector 38 fat_tree_128.servers[43].sink "Latency of each message" ETV
vector 39 fat_tree_128.servers[95].sink "Latency of each message" ETV
vector 40 fat_tree_128.servers[103].sink "Latency of each message" ETV
vector 41 fat_tree_128.servers[127].sink "Latency of each message" ETV
vector 42 fat_tree_128.servers[90].sink "Latency of each message" ETV
vector 43 fat_tree_128.servers[98].sink "Latency of each message" ETV
vector 44 fat_tree_128.servers[113].sink "Latency of each message" ETV
vector 45 fat_tree_128.servers[46].sink "Latency of each message" ETV
vector 46 fat_tree_128.servers[4].sink "Latency of each message" ETV
vector 47 fat_tree_128.servers[100].sink "Latency of each message" ETV
vector 48 fat_tree_128.servers[47].sink "Latency of each message" ETV
vector 49 fat_tree_128.servers[83].sink "Latency of each message" ETV
vector 50 fat_tree_128.servers[13].sink "Latency of each message" ETV
vector 51 fat_tree_128.servers[73].sink "Latency of each message" ETV
vector 52 fat_tree_128.servers[57].sink "Latency of each message" ETV
vector 53 fat_tree_128.servers[80].sink "Latency of each message" ETV
vector 54 fat_tree_128.servers[35].sink "Latency of each message" ETV
vector 55 fat_tree_128.servers[48].sink "Latency of each message" ETV
vector 56 fat_tree_128.servers[37].sink "Latency of each message" ETV
vector 57 fat_tree_128.servers[117].sink "Latency of each message" ETV
vector 58 fat_tree_128.servers[24].sink "Latency of each message" ETV
vector 59 fat_tree_128.servers[78].sink "Latency of each message" ETV
vector 60 fat_tree_128.servers[68].sink "Latency of each message" ETV
vector 61 fat_tree_128.servers[12].sink "Latency of each message" ETV
vector 62 fat_tree_128.servers[28].sink "Latency of each message" ETV
vector 63 fat_tree_128.servers[9].sink "Latency of each message" ETV
vector 64 fat_tree_128.servers[121].sink "Latency of each message" ETV
vector 65 fat_tree_128.servers[92].sink "Latency of each message" ETV
vector 66 fat_tree_128.servers[23].sink "Latency of each message" ETV
vector 67 fat_tree_128.servers[52].sink "Latency of each message" ETV
vector 68 fat_tree_128.servers[93].sink "Latency of each message" ETV
vector 69 fat_tree_128.servers[36].sink "Latency of each message" ETV
vector 70 fat_tree_128.servers[125].sink "Latency of each message" ETV
vector 71 fat_tree_128.servers[20].sink "Latency of each message" ETV
vector 72 fat_tree_128.servers[119].sink "Latency of each message" ETV
vector 73 fat_tree_128.servers[34].sink "Latency of each message" ETV
vector 74 fat_tree_128.servers[30].sink "Latency of each message" ETV
0	3904931	0.006049589	0.001049076
0	5890824	0.007098679	0.00104959
0	7922511	0.008147767	0.001050102
0	9969894	0.009199929	0.001053688
0	12104884	0.010271555	0.001076226
1	3904933	0.006049589	0.001049076
1	5890826	0.007098679	0.00104959
1	7922513	0.008147767	0.001050102
1	9963576	0.009196855	0.001050614
1	12060293	0.010245943	0.001050614
2	4229264	0.006220993	0.00122048
2	6512139	0.007419659	0.00123009
2	8836290	0.008618837	0.001230676
2	11202873	0.009818013	0.001230748
2	13306611	0.011017191	0.001230822
2	16326105	0.012944687	0.007944174
2	24443259	0.018105647	0.005374766
2	30699996	0.022282543	0.004295982
2	35944014	0.026552111	0.004399918
2	39835235	0.030749487	0.00432107
3	4933485	0.006593911	0.001593398
3	7730118	0.008048703	0.00304819
3	8025885	0.008201353	0.001650824
3	11216669	0.009824161	0.001667488
3	13301139	0.011014117	0.00305098
3	13979536	0.011447481	0.001668792
3	16524023	0.013071315	0.001669586
3	17900454	0.013978415	0.003049774
3	22559972	0.016946991	0.003052846
3	27635159	0.020079407	0.003218734
4	5799192	0.007051124	6.12e-07
4	5895078	0.007101636	6.12e-07
4	5995017	0.00715215	6.14e-07
4	6091680	0.00720266	6.12e-07
4	6187850	0.007253172	6.12e-07
4	6287788	0.007303686	6.14e-07
4	6384716	0.007354196	6.12e-07
4	6481245	0.007404708	6.12e-07
4	6581336	0.007455222	6.14e-07
4	6678575	0.007505732	6.12e-07
4	6775005	0.007556244	6.12e-07
4	6874927	0.007606758	6.14e-07
4	6972071	0.007657268	6.12e-07
4	7068644	0.00770778	6.12e-07
4	7168469	0.007758294	6.14e-07
4	7265628	0.007808804	6.12e-07
4	7362179	0.007859316	6.12e-07
4	7462029	0.00790983	6.14e-07
4	7559146	0.00796034	6.12e-07
4	7655708	0.008010852	6.12e-07
4	7755660	0.008061366	6.14e-07
4	7852839	0.008111876	6.12e-07
4	7949196	0.008162388	6.12e-07
4	8049168	0.008212902	6.14e-07
4	8146336	0.008263412	6.12e-07
4	8242734	0.008313924	6.12e-07
4	8342713	0.008364438	6.14e-07
4	8439882	0.008414948	6.12e-07
4	8536410	0.00846546	6.12e-07
4	8636262	0.008515974	6.14e-07
4	8733450	0.008566484	6.12e-07
4	8830050	0.008616996	6.12e-07
4	8929932	0.00866751	6.14e-07
4	9027141	0.00871802	6.12e-07
4	9123664	0.008768532	6.12e-07
4	9223383	0.008819046	6.14e-07
4	9320723	0.008869556	6.12e-07
4	9417222	0.008920068	6.12e-07
4	9517066	0.008970582	6.14e-07
4	9614267	0.009021092	6.12e-07
4	9713202	0.009071604	6.12e-07
4	9816322	0.009122118	6.14e-07
4	9916391	0.009172628	6.12e-07
4	10015646	0.00922314	6.12e-07
4	10118708	0.009273654	6.14e-07
4	10218924	0.009324164	6.12e-07
4	10318421	0.009374676	6.12e-07
4	10421285	0.00942519	6.14e-07
4	10521544	0.0094757	6.12e-07
4	10621066	0.009526212	6.12e-07
4	10723805	0.009576726	6.14e-07
4	10824225	0.009627236	6.12e-07
4	10923710	0.009677748	6.12e-07
4	11026448	0.009728262	6.14e-07
4	11126943	0.009778772	6.12e-07
4	11226454	0.009829284	6.12e-07
4	11329385	0.009879798	6.14e-07
4	11429834	0.009930308	6.12e-07
4	11529250	0.00998082	6.12e-07
4	11632672	0.010031334	6.14e-07
4	11732935	0.010081844	6.12e-07
4	11832380	0.010132356	6.12e-07
4	11935329	0.01018287	6.14e-07
4	12035686	0.01023338	6.12e-07
4	12124576	0.010283892	6.12e-07
4	12208024	0.010334406	6.14e-07
4	12289144	0.010384916	6.12e-07
4	12369399	0.010435428	6.12e-07
4	12452859	0.010485942	6.14e-07
4	12534024	0.010536452	6.12e-07
4	12614267	0.010586964	6.12e-07
4	12697671	0.010637478	6.14e-07
4	12778788	0.010687988	6.12e-07
4	12859026	0.0107385	6.12e-07
4	12942594	0.010789014	6.14e-07
4	13023667	0.010839524	6.12e-07
4	13103854	0.010890036	6.12e-07
4	13187296	0.01094055	6.14e-07
4	13268337	0.01099106	6.12e-07
4	13344943	0.011041572	6.12e-07
4	13425216	0.011092086	6.14e-07
4	13503168	0.011142596	6.12e-07
4	13580697	0.011193108	6.12e-07
4	13661587	0.011243622	6.14e-07
4	13740247	0.011294132	6.12e-07
4	13818122	0.011344644	6.12e-07
4	13899024	0.011395158	6.14e-07
4	13977995	0.011445668	6.12e-07
4	14055734	0.01149618	6.12e-07
4	14136412	0.011546694	6.14e-07
4	14215468	0.011597204	6.12e-07
4	14293079	0.011647716	6.12e-07
4	14373821	0.01169823	6.14e-07
4	14452836	0.01174874	6.12e-07
4	14530469	0.011799252	6.12e-07
4	14611244	0.011849766	6.14e-07
4	14690207	0.011900276	6.12e-07
4	14767925	0.011950788	6.12e-07
4	14848555	0.012001302	6.14e-07
4	14927460	0.012051812	6.12e-07
4	15005216	0.012102324	6.12e-07
4	15085733	0.012152838	6.14e-07
4	15164787	0.012203348	6.12e-07
4	15242511	0.01225386	6.12e-07
4	15320366	0.012304372	6.12e-07
4	15401929	0.012354884	6.12e-07
4	15479567	0.012405396	6.12e-07
4	15557539	0.012455908	6.12e-07
4	15639096	0.01250642	6.12e-07
4	15716787	0.012556932	6.12e-07
4	15794759	0.012607444	6.12e-07
4	15876312	0.012657956	6.12e-07
4	15953941	0.012708468	6.12e-07
4	16031941	0.01275898	6.12e-07
4	16113378	0.012809492	6.12e-07
4	16191141	0.012860004	6.12e-07
4	16268980	0.012910516	6.12e-07
4	16350484	0.012961028	6.12e-07
4	16428183	0.01301154	6.12e-07
4	16506963	0.013062052	6.12e-07
4	16586394	0.013112564	6.12e-07
4	16661672	0.013163076	6.12e-07
4	16737177	0.013213588	6.12e-07
4	16816321	0.0132641	6.12e-07
4	16891909	0.013314612	6.12e-07
4	16967582	0.013365124	6.12e-07
4	17046479	0.013415636	6.12e-07
4	17122077	0.013466148	6.12e-07
4	17197646	0.01351666	6.12e-07
4	17276876	0.013567172	6.12e-07
4	17352385	0.013617684	6.12e-07
4	17428079	0.013668196	6.12e-07
4	17507165	0.013718708	6.12e-07
4	17582890	0.01376922	6.12e-07
4	17658523	0.013819732	6.12e-07
4	17737578	0.013870244	6.12e-07
4	17813207	0.013920756	6.12e-07
4	17888698	0.013971268	6.12e-07
4	17967888	0.01402178	6.12e-07
4	18043477	0.014072292	6.12e-07
4	18118938	0.014122804	6.12e-07
4	18198307	0.014173316	6.12e-07
4	18273591	0.014223828	6.12e-07
4	18349252	0.01427434	6.12e-07
4	18428335	0.014324852	6.12e-07
4	18503959	0.014375364	6.12e-07
4	18579627	0.014425876	6.12e-07
4	18658611	0.014476388	6.12e-07
4	18734261	0.0145269	6.12e-07
4	18809792	0.014577412	6.12e-07
4	18888897	0.014627924	6.12e-07
4	18964551	0.014678436	6.12e-07
4	19039925	0.014728948	6.12e-07
4	19119229	0.01477946	6.12e-07
4	19194719	0.014829972	6.12e-07
4	19270333	0.014880484	6.12e-07
4	19349464	0.014930996	6.12e-07
4	19425113	0.014981508	6.12e-07
4	19500755	0.01503202	6.12e-07
4	19582352	0.015082532	6.12e-07
4	19660477	0.015133044	6.12e-07
4	19738518	0.015183556	6.12e-07
4	19820150	0.015234068	6.12e-07
4	19898232	0.01528458	6.12e-07
4	19976226	0.015335092	6.12e-07
4	20057969	0.015385604	6.12e-07
4	20135961	0.015436116	6.12e-07
4	20213035	0.015486628	6.12e-07
4	20296495	0.01553714	6.12e-07
4	20377739	0.015587652	6.12e-07
4	20457827	0.015638164	6.12e-07
4	20541230	0.015688676	6.12e-07
4	20621281	0.015739188	6.12e-07
4	20701069	0.0157897	6.12e-07
4	20784399	0.015840212	6.12e-07
4	20864386	0.015890724	6.12e-07
4	20944244	0.015941236	6.12e-07
4	21027517	0.015991748	6.12e-07
4	21107574	0.01604226	6.12e-07
4	21187461	0.016092772	6.12e-07
4	21270657	0.016143284	6.12e-07
4	21350779	0.016193796	6.12e-07
4	21430666	0.016244308	6.12e-07
4	21513939	0.01629482	6.12e-07
4	21593893	0.016345332	6.12e-07
4	21673705	0.016395844	6.12e-07
4	21756993	0.016446356	6.12e-07
4	21837135	0.016496868	6.12e-07
4	21916899	0.01654738	6.12e-07
4	22000197	0.016597892	6.12e-07
4	22080266	0.016648404	6.12e-07
4	22160078	0.016698916	6.12e-07
4	22243436	0.016749428	6.12e-07
4	22323428	0.01679994	6.12e-07
4	22403376	0.016850452	6.12e-07
4	22486645	0.016900964	6.12e-07
4	22566744	0.016951476	6.12e-07
4	22646638	0.017001988	6.12e-07
4	22732178	0.0170525	6.12e-07
4	22814859	0.017103012	6.12e-07
5	5799627	0.007051324	8.12e-07
5	5895470	0.007101836	8.12e-07
5	5995578	0.00715235	8.14e-07
5	6092048	0.00720286	8.12e-07
5	6188316	0.007253372	8.12e-07
5	6288261	0.007303886	8.14e-07
5	6385115	0.007354396	8.12e-07
5	6481711	0.007404908	8.12e-07
5	6582029	0.007455422	8.14e-07
5	6679027	0.007505932	8.12e-07
5	6775468	0.007556444	8.12e-07
5	6875671	0.007606958	8.14e-07
5	6972544	0.007657468	8.12e-07
5	7069008	0.00770798	8.12e-07
5	7169289	0.007758494	8.14e-07
5	7266100	0.007809004	8.12e-07
5	7362549	0.007859516	8.12e-07
5	7462885	0.00791003	8.14e-07
5	7559512	0.00796054	8.12e-07
5	7656069	0.008011052	8.12e-07
5	7756422	0.008061566	8.14e-07
5	7853185	0.008112076	8.12e-07
5	7949653	0.008162588	8.12e-07
5	8049874	0.008213102	8.14e-07
5	8146728	0.008263612	8.12e-07
5	8243223	0.008314124	8.12e-07
5	8343431	0.008364638	8.14e-07
5	8440350	0.008415148	8.12e-07
5	8536798	0.00846566	8.12e-07
5	8637056	0.008516174	8.14e-07
5	8733956	0.008566684	8.12e-07
5	8830357	0.008617196	8.12e-07
5	8930773	0.00866771	8.14e-07
5	9027605	0.00871822	8.12e-07
5	9124031	0.008768732	8.12e-07
5	9224235	0.008819246	8.14e-07
5	9321085	0.008869756	8.12e-07
5	9417638	0.008920268	8.12e-07
5	9517815	0.008970782	8.14e-07
5	9614644	0.009021292	8.12e-07
5	9713677	0.009071804	8.12e-07
5	9816995	0.009122318	8.14e-07
5	9916819	0.009172828	8.12e-07
5	10016120	0.00922334	8.12e-07
5	10119224	0.009273854	8.14e-07
5	10219392	0.009324364	8.12e-07
5	10318820	0.009374876	8.12e-07
5	10421937	0.00942539	8.14e-07
5	10522048	0.0094759	8.12e-07
5	10621411	0.009526412	8.12e-07
5	10724584	0.009576926	8.14e-07
5	10824617	0.009627436	8.12e-07
5	10924117	0.009677948	8.12e-07
5	11027180	0.009728462	8.14e-07
5	11127239	0.009778972	8.12e-07
5	11226879	0.009829484	8.12e-07
5	11330029	0.009879998	8.14e-07
5	11430196	0.009930508	8.12e-07
5	11529718	0.00998102	8.12e-07
5	11633172	0.010031534	8.14e-07
5	11733360	0.010082044	8.12e-07
5	11832840	0.010132556	8.12e-07
5	11936058	0.01018307	8.14e-07
5	12036163	0.01023358	8.12e-07
5	12124872	0.010284092	8.12e-07
5	12208738	0.010334606	8.14e-07
5	12289538	0.010385116	8.12e-07
5	12369669	0.010435628	8.12e-07
5	12453607	0.010486142	8.14e-07
5	12534348	0.010536652	8.12e-07
5	12614583	0.010587164	8.12e-07
5	12698373	0.010637678	8.14e-07
5	12779163	0.010688188	8.12e-07
5	12859424	0.0107387	8.12e-07
5	12943151	0.010789214	8.14e-07
5	13024075	0.010839724	8.12e-07
5	13104274	0.010890236	8.12e-07
5	13188015	0.01094075	8.14e-07
5	13268825	0.01099126	8.12e-07
5	13345233	0.011041772	8.12e-07
5	13425982	0.011092286	8.14e-07
5	13503626	0.011142796	8.12e-07
5	13580966	0.011193308	8.12e-07
5	13662476	0.011243822	8.14e-07
5	13740686	0.011294332	8.12e-07
5	13818411	0.011344844	8.12e-07
5	13899908	0.011395358	8.14e-07
5	13978356	0.011445868	8.12e-07
5	14056074	0.01149638	8.12e-07
5	14137397	0.011546894	8.14e-07
5	14215836	0.011597404	8.12e-07
5	14293449	0.011647916	8.12e-07
5	14374746	0.01169843	8.14e-07
5	14453227	0.01174894	8.12e-07
5	14530852	0.011799452	8.12e-07
5	14612189	0.011849966	8.14e-07
5	14690682	0.011900476	8.12e-07
5	14768214	0.011950988	8.12e-07
5	14849586	0.012001502	8.14e-07
5	14927927	0.012052012	8.12e-07
5	15005472	0.012102524	8.12e-07
5	15086840	0.012153038	8.14e-07
5	15165157	0.012203548	8.12e-07
5	15242815	0.01225406	8.12e-07
5	15323956	0.012304574	8.14e-07
5	15402245	0.012355084	8.12e-07
5	15479907	0.012405596	8.12e-07
5	15561020	0.01245611	8.14e-07
5	15639388	0.01250662	8.12e-07
5	15717155	0.012557132	8.12e-07
5	15798170	0.012607646	8.14e-07
5	15876653	0.012658156	8.12e-07
5	15954292	0.012708668	8.12e-07
5	16035197	0.012759182	8.14e-07
5	16113752	0.012809692	8.12e-07
5	16191413	0.012860204	8.12e-07
5	16272280	0.012910718	8.14e-07
5	16350839	0.012961228	8.12e-07
5	16428444	0.01301174	8.12e-07
5	16510252	0.013062254	8.14e-07
5	16586661	0.013112764	8.12e-07
5	16661978	0.013163276	8.12e-07
5	16740415	0.01321379	8.14e-07
5	16816595	0.0132643	8.12e-07
5	16892309	0.013314812	8.12e-07
5	16970728	0.013365326	8.14e-07
5	17046790	0.013415836	8.12e-07
5	17122429	0.013466348	8.12e-07
5	17200510	0.013516862	8.14e-07
5	17277275	0.013567372	8.12e-07
5	17352674	0.013617884	8.12e-07
5	17430974	0.013668398	8.14e-07
5	17507539	0.013718908	8.12e-07
5	17583170	0.01376942	8.12e-07
5	17661498	0.013819934	8.14e-07
5	17737904	0.013870444	8.12e-07
5	17813503	0.013920956	8.12e-07
5	17891625	0.01397147	8.14e-07
5	17968172	0.01402198	8.12e-07
5	18043851	0.014072492	8.12e-07
5	18119255	0.014123004	8.12e-07
5	18198597	0.014173516	8.12e-07
5	18273972	0.014224028	8.12e-07
5	18349514	0.01427454	8.12e-07
5	18428685	0.014325052	8.12e-07
5	18504331	0.014375564	8.12e-07
5	18579884	0.014426076	8.12e-07
5	18659022	0.014476588	8.12e-07
5	18734543	0.0145271	8.12e-07
5	18810097	0.014577612	8.12e-07
5	18889260	0.014628124	8.12e-07
5	18964811	0.014678636	8.12e-07
5	19040298	0.014729148	8.12e-07
5	19119526	0.01477966	8.12e-07
5	19195027	0.014830172	8.12e-07
5	19270683	0.014880684	8.12e-07
5	19349750	0.014931196	8.12e-07
5	19425465	0.014981708	8.12e-07
5	19501071	0.01503222	8.12e-07
5	19582649	0.015082732	8.12e-07
5	19660834	0.015133244	8.12e-07
5	19738769	0.015183756	8.12e-07
5	19820526	0.015234268	8.12e-07
5	19898555	0.01528478	8.12e-07
5	19976516	0.015335292	8.12e-07
5	20058348	0.015385804	8.12e-07
5	20136216	0.015436316	8.12e-07
5	20213342	0.015486828	8.12e-07
5	20297056	0.01553734	8.12e-07
5	20377997	0.015587852	8.12e-07
5	20458203	0.015638364	8.12e-07
5	20541659	0.015688876	8.12e-07
5	20621594	0.015739388	8.12e-07
5	20701432	0.0157899	8.12e-07
5	20784843	0.015840412	8.12e-07
5	20864787	0.015890924	8.12e-07
5	20944507	0.015941436	8.12e-07
5	21028002	0.015991948	8.12e-07
5	21107935	0.01604246	8.12e-07
5	21187709	0.016092972	8.12e-07
5	21271176	0.016143484	8.12e-07
5	21351103	0.016193996	8.12e-07
5	21430952	0.016244508	8.12e-07
5	21514467	0.01629502	8.12e-07
5	21594150	0.016345532	8.12e-07
5	21674059	0.016396044	8.12e-07
5	21757466	0.016446556	8.12e-07
5	21837433	0.016497068	8.12e-07
5	21917263	0.01654758	8.12e-07
5	22000615	0.016598092	8.12e-07
5	22080637	0.016648604	8.12e-07
5	22160399	0.016699116	8.12e-07
5	22243857	0.016749628	8.12e-07
5	22323828	0.01680014	8.12e-07
5	22403632	0.016850652	8.12e-07
5	22487102	0.016901164	8.12e-07
5	22567115	0.016951676	8.12e-07
5	22646888	0.017002188	8.12e-07
5	22732764	0.0170527	8.12e-07
5	22815162	0.017103212	8.12e-07
6	5800047	0.007051524	1.012e-06
6	5895816	0.007102036	1.012e-06
6	5995959	0.00715255	1.014e-06
6	6092515	0.00720306	1.012e-06
6	6188609	0.007253572	1.012e-06
6	6288723	0.007304086	1.014e-06
6	6385480	0.007354596	1.012e-06
6	6482029	0.007405108	1.012e-06
6	6582504	0.007455622	1.014e-06
6	6679344	0.007506132	1.012e-06
6	6775842	0.007556644	1.012e-06
6	6876152	0.007607158	1.014e-06
6	6972929	0.007657668	1.012e-06
6	7069426	0.00770818	1.012e-06
6	7169638	0.007758694	1.014e-06
6	7266541	0.007809204	1.012e-06
6	7362969	0.007859716	1.012e-06
6	7463251	0.00791023	1.014e-06
6	7559991	0.00796074	1.012e-06
6	7656396	0.008011252	1.012e-06
6	7756811	0.008061766	1.014e-06
6	7853696	0.008112276	1.012e-06
6	7949960	0.008162788	1.012e-06
6	8050362	0.008213302	1.014e-06
6	8147121	0.008263812	1.012e-06
6	8243578	0.008314324	1.012e-06
6	8343951	0.008364838	1.014e-06
6	8440702	0.008415348	1.012e-06
6	8537227	0.00846586	1.012e-06
6	8637474	0.008516374	1.014e-06
6	8734347	0.008566884	1.012e-06
6	8830820	0.008617396	1.012e-06
6	8931078	0.00866791	1.014e-06
6	9028010	0.00871842	1.012e-06
6	9124455	0.008768932	1.012e-06
6	9224632	0.008819446	1.014e-06
6	9321549	0.008869956	1.012e-06
6	9417961	0.008920468	1.012e-06
6	9518338	0.008970982	1.014e-06
6	9615094	0.009021492	1.012e-06
6	9686463	0.009057071	6.559e-06
6	9714015	0.009072004	1.012e-06
6	9784659	0.009106223	5.199e-06
6	9817458	0.009122518	1.014e-06
6	9890782	0.009159471	7.935e-06
6	9917171	0.009173028	1.012e-06
6	9988837	0.009208623	6.575e-06
6	10016509	0.00922354	1.012e-06
6	10087208	0.009257775	5.215e-06
6	10119992	0.009274054	1.014e-06
6	10193424	0.009311023	7.951e-06
6	10219708	0.009324564	1.012e-06
6	10291634	0.009360175	6.591e-06
6	10319245	0.009375076	1.012e-06
6	10389926	0.009409327	5.231e-06
6	10422641	0.00942559	1.014e-06
6	10496037	0.009462575	7.967e-06
6	10522443	0.0094761	1.012e-06
6	10594203	0.009511727	6.607e-06
6	10621877	0.009526612	1.012e-06
6	10692573	0.009560879	5.247e-06
6	10725248	0.009577126	1.014e-06
6	10798658	0.009614127	7.983e-06
6	10825042	0.009627636	1.012e-06
6	10896823	0.009663279	6.623e-06
6	10924474	0.009678148	1.012e-06
6	10995064	0.009712431	5.263e-06
6	11027918	0.009728662	1.014e-06
6	11101252	0.009765679	7.999e-06
6	11127714	0.009779172	1.012e-06
6	11199510	0.009814831	6.639e-06
6	11227119	0.009829684	1.012e-06
6	11297961	0.009863983	5.279e-06
6	11330819	0.009880198	1.014e-06
6	11404179	0.009917231	8.015e-06
6	11430550	0.009930708	1.012e-06
6	11502448	0.009966383	6.655e-06
6	11530033	0.00998122	1.012e-06
6	11601203	0.010015535	5.295e-06
6	11633927	0.010031734	1.014e-06
6	11707399	0.010068783	8.031e-06
6	11733669	0.010082244	1.012e-06
6	11805670	0.010117935	6.671e-06
6	11833223	0.010132756	1.012e-06
6	11904150	0.010167087	5.311e-06
6	11936803	0.01018327	1.014e-06
6	12010339	0.010220335	8.047e-06
6	12036484	0.01023378	1.012e-06
6	12103136	0.010269487	6.687e-06
6	12125225	0.010284292	1.012e-06
6	12182977	0.010318639	5.327e-06
6	12209323	0.010334806	1.014e-06
6	12268763	0.010371887	8.063e-06
6	12289839	0.010385316	1.012e-06
6	12348182	0.010421039	6.703e-06
6	12370019	0.010435828	1.012e-06
6	12427795	0.010470191	5.343e-06
6	12454177	0.010486342	1.014e-06
6	12513646	0.010523439	8.079e-06
6	12534699	0.010536852	1.012e-06
6	12593063	0.010572591	6.719e-06
6	12614865	0.010587364	1.012e-06
6	12672643	0.010621743	5.359e-06
6	12699046	0.010637878	1.014e-06
6	12758353	0.010674991	8.095e-06
6	12779541	0.010688388	1.012e-06
6	12837768	0.010724143	6.735e-06
6	12859645	0.0107389	1.012e-06
6	12917405	0.010773295	5.375e-06
6	12943885	0.010789414	1.014e-06
6	13003304	0.010826543	8.111e-06
6	13024352	0.010839924	1.012e-06
6	13082655	0.010875695	6.751e-06
6	13104564	0.010890436	1.012e-06
6	13162245	0.010924847	5.391e-06
6	13188694	0.01094095	1.014e-06
6	13248075	0.010978095	8.127e-06
6	13269039	0.01099146	1.012e-06
6	13325295	0.011027247	6.767e-06
6	13345582	0.011041972	1.012e-06
6	13402038	0.011076399	5.407e-06
6	13426514	0.011092486	1.014e-06
6	13484354	0.011129647	8.143e-06
6	13503879	0.011142996	1.012e-06
6	13560806	0.011178799	6.783e-06
6	13581303	0.011193508	1.012e-06
6	13638147	0.011227951	5.423e-06
6	13662793	0.011244022	1.014e-06
6	13721290	0.011281199	8.159e-06
6	13740989	0.011294532	1.012e-06
6	13798395	0.011330351	6.799e-06
6	13818726	0.011345044	1.012e-06
6	13875992	0.011379503	5.439e-06
6	13900287	0.011395558	1.014e-06
6	13959130	0.011432751	8.175e-06
6	13978693	0.011446068	1.012e-06
6	14036174	0.011481903	6.815e-06
6	14056309	0.01149658	1.012e-06
6	14113551	0.011531055	5.455e-06
6	14137932	0.011547094	1.014e-06
6	14196491	0.011584303	8.191e-06
6	14216154	0.011597604	1.012e-06
6	14273541	0.011633455	6.831e-06
6	14293708	0.011648116	1.012e-06
6	14350915	0.011682607	5.471e-06
6	14375265	0.01169863	1.014e-06
6	14433898	0.011735855	8.207e-06
6	14453459	0.01174914	1.012e-06
6	14510949	0.011785007	6.847e-06
6	14531119	0.011799652	1.012e-06
6	14588287	0.011834159	5.487e-06
6	14612658	0.011850166	1.014e-06
6	14671312	0.011887407	8.223e-06
6	14690906	0.011900676	1.012e-06
6	14748307	0.011936559	6.863e-06
6	14768557	0.011951188	1.012e-06
6	14825614	0.011985711	5.503e-06
6	14849991	0.012001702	1.014e-06
6	14908593	0.012038959	8.239e-06
6	14928197	0.012052212	1.012e-06
6	14985618	0.012088111	6.879e-06
6	15005821	0.012102724	1.012e-06
6	15062938	0.012137263	5.519e-06
6	15087333	0.012153238	1.014e-06
6	15145925	0.012190511	8.255e-06
6	15165515	0.012203748	1.012e-06
6	15222966	0.012239663	6.895e-06
6	15243066	0.01225426	1.012e-06
6	15300198	0.012288815	5.535e-06
6	15324539	0.012304774	1.014e-06
6	15383113	0.012342063	8.271e-06
6	15402599	0.012355284	1.012e-06
6	15460137	0.012391215	6.911e-06
6	15480108	0.012405796	1.012e-06
6	15537314	0.012440367	5.551e-06
6	15561659	0.01245631	1.014e-06
6	15620279	0.012493615	8.287e-06
6	15639790	0.01250682	1.012e-06
6	15697335	0.012542767	6.927e-06
6	15717407	0.012557332	1.012e-06
6	15774548	0.012591919	5.567e-06
6	15798756	0.012607846	1.014e-06
6	15857498	0.012645167	8.303e-06
6	15876983	0.012658356	1.012e-06
6	15934518	0.012694319	6.943e-06
6	15954594	0.012708868	1.012e-06
6	16011610	0.012743471	5.583e-06
6	16035918	0.012759382	1.014e-06
6	16094546	0.012796719	8.319e-06
6	16114091	0.012809892	1.012e-06
6	16171558	0.012845871	6.959e-06
6	16191744	0.012860404	1.012e-06
6	16248719	0.012895023	5.599e-06
6	16272967	0.012910918	1.014e-06
6	16331633	0.012948271	8.335e-06
6	16351231	0.012961428	1.012e-06
6	16408641	0.012997423	6.975e-06
6	16428755	0.01301194	1.012e-06
6	16485538	0.013046575	5.615e-06
6	16510927	0.013062454	1.014e-06
6	16566872	0.013099823	8.351e-06
6	16587082	0.013112964	1.012e-06
6	16641558	0.013148975	6.991e-06
6	16662205	0.013163476	1.012e-06
6	16716353	0.013198127	5.631e-06
6	16741176	0.01321399	1.014e-06
6	16796871	0.013251375	8.367e-06
6	16816974	0.0132645	1.012e-06
6	16871821	0.013300527	7.007e-06
6	16892543	0.013315012	1.012e-06
6	16946912	0.013349679	5.647e-06
6	16971466	0.013365526	1.014e-06
6	17027139	0.013402927	8.383e-06
6	17047088	0.013416036	1.012e-06
6	17102000	0.013452079	7.023e-06
6	17122698	0.013466548	1.012e-06
6	17177056	0.013501231	5.663e-06
6	17201483	0.013517062	1.014e-06
6	17257493	0.013554479	8.399e-06
6	17277554	0.013567572	1.012e-06
6	17332300	0.013603631	7.039e-06
6	17353028	0.013618084	1.012e-06
6	17406764	0.013652271	5.167e-06
6	17431911	0.013668598	1.014e-06
6	17487772	0.013706031	8.415e-06
6	17507854	0.013719108	1.012e-06
6	17562730	0.013755183	7.055e-06
6	17583498	0.01376962	1.012e-06
6	17637795	0.013804335	5.695e-06
6	17662316	0.013820134	1.014e-06
6	17718085	0.013857583	8.431e-06
6	17738268	0.013870644	1.012e-06
6	17793054	0.013906735	7.071e-06
6	17813785	0.013921156	1.012e-06
6	17867576	0.013955375	5.199e-06
6	17892487	0.01397167	1.014e-06
6	17948522	0.014009135	8.447e-06
6	17968554	0.01402218	1.012e-06
6	18023312	0.014058287	7.087e-06
6	18044084	0.014072692	1.012e-06
6	18098318	0.014107439	5.727e-06
6	18122664	0.014123206	1.014e-06
6	18178808	0.014160687	8.463e-06
6	18198939	0.014173716	1.012e-06
6	18253717	0.014209839	7.103e-06
6	18274195	0.014224228	1.012e-06
6	18328109	0.014258479	5.231e-06
6	18353064	0.014274742	1.014e-06
6	18409023	0.014312239	8.479e-06
6	18428961	0.014325252	1.012e-06
6	18483916	0.014361391	7.119e-06
6	18504631	0.014375764	1.012e-06
6	18558981	0.014410543	5.759e-06
6	18583272	0.014426278	1.014e-06
6	18639333	0.014463791	8.495e-06
6	18659246	0.014476788	1.012e-06
6	18714303	0.014512943	7.135e-06
6	18734910	0.0145273	1.012e-06
6	18788676	0.014561583	5.263e-06
6	18813328	0.014577814	1.014e-06
6	18869625	0.014615343	8.511e-06
6	18889530	0.014628324	1.012e-06
6	18944490	0.014664495	7.151e-06
6	18965127	0.014678836	1.012e-06
6	19019431	0.014713647	5.791e-06
6	19043414	0.01472935	1.014e-06
6	19099880	0.014766895	8.527e-06
6	19119872	0.01477986	1.012e-06
6	19174691	0.014816047	7.167e-06
6	19195278	0.014830372	1.012e-06
6	19249075	0.014864687	5.295e-06
6	19273831	0.014880886	1.014e-06
6	19330052	0.014918447	8.543e-06
6	19350083	0.014931396	1.012e-06
6	19405023	0.014967599	7.183e-06
6	19425707	0.014981908	1.012e-06
6	19480092	0.015016751	5.823e-06
6	19504238	0.015032422	1.014e-06
6	19562310	0.015069487	8.047e-06
6	19582935	0.015082932	1.012e-06
6	19640418	0.015119151	7.199e-06
6	19661083	0.015133444	1.012e-06
6	19717884	0.015168303	5.839e-06
6	19741942	0.015183958	1.014e-06
6	19800872	0.015221551	8.575e-06
6	19820757	0.015234468	1.012e-06
6	19877657	0.015270191	6.703e-06
6	19898884	0.01528498	1.012e-06
6	19955649	0.015319855	5.855e-06
6	19979420	0.015335494	1.014e-06
6	20038103	0.015372591	8.079e-06
6	20058604	0.015386004	1.012e-06
6	20116071	0.015422255	7.231e-06
6	20136529	0.015436516	1.012e-06
6	20192895	0.015471407	5.871e-06
6	20216128	0.01548703	1.014e-06
6	20275796	0.015524143	8.095e-06
6	20297350	0.01553754	1.012e-06
6	20356317	0.015573295	6.735e-06
6	20378351	0.015588052	1.012e-06
6	20435992	0.015622447	5.375e-06
6	20460943	0.015638566	1.014e-06
6	20521032	0.015675695	8.111e-06
6	20542041	0.015689076	1.012e-06
6	20600058	0.015724847	6.751e-06
6	20621844	0.015739588	1.012e-06
6	20679236	0.015773999	5.391e-06
6	20704251	0.015790102	1.014e-06
6	20764133	0.015827247	8.127e-06
6	20785197	0.015840612	1.012e-06
6	20843290	0.015876399	6.767e-06
6	20865008	0.015891124	1.012e-06
6	20922389	0.015925551	5.407e-06
6	20947389	0.015941638	1.014e-06
6	21007281	0.015978799	8.143e-06
6	21028263	0.015992148	1.012e-06
6	21086367	0.016027951	6.783e-06
6	21108229	0.01604266	1.012e-06
6	21165491	0.016077103	5.423e-06
6	21188026	0.016093172	1.012e-06
6	21250413	0.016130351	8.159e-06
6	21271459	0.016143684	1.012e-06
6	21329629	0.016179503	6.799e-06
6	21351437	0.016194196	1.012e-06
6	21408808	0.016228655	5.439e-06
6	21431228	0.016244708	1.012e-06
6	21493826	0.016281903	8.175e-06
6	21514729	0.01629522	1.012e-06
6	21572737	0.016331055	6.815e-06
6	21594495	0.016345732	1.012e-06
6	21651941	0.016380207	5.455e-06
6	21674272	0.016396244	1.012e-06
6	21736880	0.016433455	8.191e-06
6	21757844	0.016446756	1.012e-06
6	21816090	0.016482607	6.831e-06
6	21837724	0.016497268	1.012e-06
6	21895230	0.016531759	5.471e-06
6	21917514	0.01654778	1.012e-06
6	21980034	0.016585007	8.207e-06
6	22000983	0.016598292	1.012e-06
6	22059203	0.016634159	6.847e-06
6	22080852	0.016648804	1.012e-06
6	22138306	0.016683311	5.487e-06
6	22160709	0.016699316	1.012e-06
6	22223216	0.016736559	8.223e-06
6	22244179	0.016749828	1.012e-06
6	22302332	0.016785711	6.863e-06
6	22324058	0.01680034	1.012e-06
6	22381493	0.016834863	5.503e-06
6	22403987	0.016850852	1.012e-06
6	22466424	0.016888111	8.239e-06
6	22487383	0.016901364	1.012e-06
6	22545607	0.016937263	6.879e-06
6	22567403	0.016951876	1.012e-06
6	22624757	0.016986415	5.519e-06
6	22647209	0.017002388	1.012e-06
6	22709675	0.017039663	8.255e-06
6	22733054	0.0170529	1.012e-06
6	22791879	0.017088815	6.895e-06
6	22815519	0.017103412	1.012e-06
6	22874113	0.017137967	5.535e-06
6	22960463	0.017191215	8.271e-06
6	23040698	0.017240367	6.911e-06
6	23120673	0.017289519	5.551e-06
6	23206433	0.017342767	8.287e-06
6	23286408	0.017391919	6.927e-06
6	23366447	0.017441071	5.567e-06
6	23452011	0.017494319	8.303e-06
6	23531987	0.017543471	6.943e-06
6	23612008	0.017592623	5.583e-06
6	23697655	0.017645871	8.319e-06
6	23777606	0.017695023	6.959e-06
6	23857664	0.017744175	5.599e-06
6	23943334	0.017797423	8.335e-06
6	24023482	0.017846575	6.975e-06
6	24103418	0.017895727	5.615e-06
6	24189056	0.017948975	8.351e-06
6	24268957	0.017998127	6.991e-06
6	24349084	0.018047279	5.631e-06
6	24434803	0.018100527	8.367e-06
6	24514858	0.018149679	7.007e-06
6	24594899	0.018198831	5.647e-06
6	24680715	0.018252079	8.383e-06
6	24760817	0.018301231	7.023e-06
6	24840903	0.018350383	5.663e-06
6	24926482	0.018403631	8.399e-06
6	25006584	0.018452783	7.039e-06
6	25086698	0.018501935	5.679e-06
6	25172293	0.018555183	8.415e-06
6	25252329	0.018604335	7.055e-06
6	25332324	0.018653487	5.695e-06
6	25418006	0.018706735	8.431e-06
6	25497881	0.018755887	7.071e-06
6	25578032	0.018805039	5.711e-06
6	25663714	0.018858287	8.447e-06
6	25743850	0.018907439	7.087e-06
6	25823807	0.018956591	5.727e-06
6	25909511	0.019009839	8.463e-06
6	25991438	0.019058991	7.103e-06
6	26073459	0.019108143	5.743e-06
7	5800049	0.007051524	1.012e-06
7	5895818	0.007102036	1.012e-06
7	5995961	0.00715255	1.014e-06
7	6092517	0.00720306	1.012e-06
7	6188611	0.007253572	1.012e-06
7	6288725	0.007304086	1.014e-06
7	6385482	0.007354596	1.012e-06
7	6482031	0.007405108	1.012e-06
7	6582506	0.007455622	1.014e-06
7	6679346	0.007506132	1.012e-06
7	6775844	0.007556644	1.012e-06
7	6876154	0.007607158	1.014e-06
7	6972931	0.007657668	1.012e-06
7	7069428	0.00770818	1.012e-06
7	7169640	0.007758694	1.014e-06
7	7266543	0.007809204	1.012e-06
7	7362971	0.007859716	1.012e-06
7	7463253	0.00791023	1.014e-06
7	7559993	0.00796074	1.012e-06
7	7656398	0.008011252	1.012e-06
7	7756813	0.008061766	1.014e-06
7	7853698	0.008112276	1.012e-06
7	7949962	0.008162788	1.012e-06
7	8050364	0.008213302	1.014e-06
7	8147123	0.008263812	1.012e-06
7	8243580	0.008314324	1.012e-06
7	8343953	0.008364838	1.014e-06
7	8440704	0.008415348	1.012e-06
7	8537229	0.00846586	1.012e-06
7	8637476	0.008516374	1.014e-06
7	8734349	0.008566884	1.012e-06
7	8830822	0.008617396	1.012e-06
7	8931080	0.00866791	1.014e-06
7	9028012	0.00871842	1.012e-06
7	9124457	0.008768932	1.012e-06
7	9224634	0.008819446	1.014e-06
7	9321551	0.008869956	1.012e-06
7	9417963	0.008920468	1.012e-06
7	9518340	0.008970982	1.014e-06
7	9615096	0.009021492	1.012e-06
7	9714017	0.009072004	1.012e-06
7	9817460	0.009122518	1.014e-06
7	9917173	0.009173028	1.012e-06
7	10016511	0.00922354	1.012e-06
7	10119996	0.009274054	1.014e-06
7	10219710	0.009324564	1.012e-06
7	10319247	0.009375076	1.012e-06
7	10422645	0.00942559	1.014e-06
7	10522445	0.0094761	1.012e-06
7	10621879	0.009526612	1.012e-06
7	10725252	0.009577126	1.014e-06
7	10825044	0.009627636	1.012e-06
7	10924476	0.009678148	1.012e-06
7	11027922	0.009728662	1.014e-06
7	11127716	0.009779172	1.012e-06
7	11227121	0.009829684	1.012e-06
7	11330823	0.009880198	1.014e-06
7	11430552	0.009930708	1.012e-06
7	11530035	0.00998122	1.012e-06
7	11633931	0.010031734	1.014e-06
7	11733671	0.010082244	1.012e-06
7	11833225	0.010132756	1.012e-06
7	11936807	0.01018327	1.014e-06
7	12036486	0.01023378	1.012e-06
7	12125227	0.010284292	1.012e-06
7	12209325	0.010334806	1.014e-06
7	12289841	0.010385316	1.012e-06
7	12370021	0.010435828	1.012e-06
7	12454179	0.010486342	1.014e-06
7	12534701	0.010536852	1.012e-06
7	12614867	0.010587364	1.012e-06
7	12699048	0.010637878	1.014e-06
7	12779543	0.010688388	1.012e-06
7	12859647	0.0107389	1.012e-06
7	12943887	0.010789414	1.014e-06
7	13024354	0.010839924	1.012e-06
7	13104566	0.010890436	1.012e-06
7	13188696	0.01094095	1.014e-06
7	13269041	0.01099146	1.012e-06
7	13345584	0.011041972	1.012e-06
7	13363444	0.011051526	1.014e-06
7	13426516	0.011092486	1.014e-06
7	13440984	0.011102036	1.012e-06
7	13503881	0.011142996	1.012e-06
7	13518043	0.011152548	1.012e-06
7	13581305	0.011193508	1.012e-06
7	13599031	0.011203062	1.014e-06
7	13662795	0.011244022	1.014e-06
7	13677521	0.011253572	1.012e-06
7	13740991	0.011294532	1.012e-06
7	13755126	0.011304084	1.012e-06
7	13818728	0.011345044	1.012e-06
7	13836373	0.011354598	1.014e-06
7	13900289	0.011395558	1.014e-06
7	13915068	0.011405108	1.012e-06
7	13978695	0.011446068	1.012e-06
7	13992911	0.01145562	1.012e-06
7	14056311	0.01149658	1.012e-06
7	14074189	0.011506134	1.014e-06
7	14137934	0.011547094	1.014e-06
7	14152849	0.011556644	1.012e-06
7	14216156	0.011597604	1.012e-06
7	14230489	0.011607156	1.012e-06
7	14293710	0.011648116	1.012e-06
7	14311575	0.01165767	1.014e-06
7	14375267	0.01169863	1.014e-06
7	14390067	0.01170818	1.012e-06
7	14453461	0.01174914	1.012e-06
7	14467697	0.011758692	1.012e-06
7	14531121	0.011799652	1.012e-06
7	14548896	0.011809206	1.014e-06
7	14612660	0.011850166	1.014e-06
7	14627537	0.011859716	1.012e-06
7	14690908	0.011900676	1.012e-06
7	14705240	0.011910228	1.012e-06
7	14768559	0.011951188	1.012e-06
7	14786281	0.011960742	1.014e-06
7	14849993	0.012001702	1.014e-06
7	14864935	0.012011252	1.012e-06
7	14928199	0.012052212	1.012e-06
7	14942428	0.012061764	1.012e-06
7	15005823	0.012102724	1.012e-06
7	15023580	0.012112278	1.014e-06
7	15087335	0.012153238	1.014e-06
7	15102197	0.012162788	1.012e-06
7	15165517	0.012203748	1.012e-06
7	15179792	0.0122133	1.012e-06
7	15243068	0.01225426	1.012e-06
7	15260884	0.012263814	1.014e-06
7	15324541	0.012304774	1.014e-06
7	15339391	0.012314324	1.012e-06
7	15402601	0.012355284	1.012e-06
7	15416772	0.012364836	1.012e-06
7	15480110	0.012405796	1.012e-06
7	15497982	0.01241535	1.014e-06
7	15561661	0.01245631	1.014e-06
7	15576452	0.01246586	1.012e-06
7	15639792	0.01250682	1.012e-06
7	15654036	0.012516372	1.012e-06
7	15717409	0.012557332	1.012e-06
7	15735207	0.012566886	1.014e-06
7	15798758	0.012607846	1.014e-06
7	15813644	0.012617396	1.012e-06
7	15876985	0.012658356	1.012e-06
7	15891226	0.012667908	1.012e-06
7	15954596	0.012708868	1.012e-06
7	15972237	0.012718422	1.014e-06
7	16035920	0.012759382	1.014e-06
7	16050792	0.012768932	1.012e-06
7	16114093	0.012809892	1.012e-06
7	16128453	0.012819444	1.012e-06
7	16191746	0.012860404	1.012e-06
7	16209421	0.012869958	1.014e-06
7	16272969	0.012910918	1.014e-06
7	16287889	0.012920468	1.012e-06
7	16351233	0.012961428	1.012e-06
7	16365397	0.01297098	1.012e-06
7	16428757	0.01301194	1.012e-06
7	16446485	0.013021494	1.014e-06
7	16510929	0.013062454	1.014e-06
7	16525470	0.013072004	1.012e-06
7	16587084	0.013112964	1.012e-06
7	16600587	0.013122516	1.012e-06
7	16662207	0.013163476	1.012e-06
7	16679127	0.01317303	1.014e-06
7	16741178	0.01321399	1.014e-06
7	16755234	0.01322354	1.012e-06
7	16816976	0.0132645	1.012e-06
7	16830462	0.013274052	1.012e-06
7	16892545	0.013315012	1.012e-06
7	16909543	0.013324566	1.014e-06
7	16971468	0.013365526	1.014e-06
7	16985468	0.013375076	1.012e-06
7	17047090	0.013416036	1.012e-06
7	17060725	0.013425588	1.012e-06
7	17122700	0.013466548	1.012e-06
7	17139711	0.013476102	1.014e-06
7	17201485	0.013517062	1.014e-06
7	17215623	0.013526612	1.012e-06
7	17277556	0.013567572	1.012e-06
7	17291189	0.013577124	1.012e-06
7	17353030	0.013618084	1.012e-06
7	17369897	0.013627638	1.014e-06
7	17431913	0.013668598	1.014e-06
7	17446054	0.013678148	1.012e-06
7	17507856	0.013719108	1.012e-06
7	17521491	0.01372866	1.012e-06
7	17583500	0.01376962	1.012e-06
7	17600342	0.013779174	1.014e-06
7	17662318	0.013820134	1.014e-06
7	17676478	0.013829684	1.012e-06
7	17738270	0.013870644	1.012e-06
7	17751842	0.013880196	1.012e-06
7	17813787	0.013921156	1.012e-06
7	17830586	0.01393071	1.014e-06
7	17892489	0.01397167	1.014e-06
7	17906767	0.01398122	1.012e-06
7	17968556	0.01402218	1.012e-06
7	17982136	0.014031732	1.012e-06
7	18044086	0.014072692	1.012e-06
7	18060966	0.014082246	1.014e-06
7	18122666	0.014123206	1.014e-06
7	18136947	0.014132756	1.012e-06
7	18198941	0.014173716	1.012e-06
7	18212463	0.014183268	1.012e-06
7	18274197	0.014224228	1.012e-06
7	18291065	0.014233782	1.014e-06
7	18353066	0.014274742	1.014e-06
7	18367245	0.014284292	1.012e-06
7	18428963	0.014325252	1.012e-06
7	18442704	0.014334804	1.012e-06
7	18504633	0.014375764	1.012e-06
7	18521420	0.014385318	1.014e-06
7	18583274	0.014426278	1.014e-06
7	18597363	0.014435828	1.012e-06
7	18659248	0.014476788	1.012e-06
7	18672923	0.01448634	1.012e-06
7	18734912	0.0145273	1.012e-06
7	18751490	0.014536854	1.014e-06
7	18813330	0.014577814	1.014e-06
7	18827712	0.014587364	1.012e-06
7	18889532	0.014628324	1.012e-06
7	18903222	0.014637876	1.012e-06
7	18965129	0.014678836	1.012e-06
7	18981643	0.01468839	1.014e-06
7	19043416	0.01472935	1.014e-06
7	19057913	0.0147389	1.012e-06
7	19119874	0.01477986	1.012e-06
7	19133512	0.014789412	1.012e-06
7	19195280	0.014830372	1.012e-06
7	19211827	0.014839926	1.014e-06
7	19273833	0.014880886	1.014e-06
7	19288279	0.014890436	1.012e-06
7	19350085	0.014931396	1.012e-06
7	19363717	0.014940948	1.012e-06
7	19425709	0.014981908	1.012e-06
7	19442285	0.014991462	1.014e-06
7	19504240	0.015032422	1.014e-06
7	19518572	0.015041972	1.012e-06
7	19582937	0.015082932	1.012e-06
7	19596577	0.015092484	1.012e-06
7	19661085	0.015133444	1.012e-06
7	19677587	0.015142998	1.014e-06
7	19741944	0.015183958	1.014e-06
[...]
72	30360745	0.022016303	6.063e-06
72	30423454	0.022065455	4.703e-06
72	30490987	0.022118703	7.439e-06
72	30554033	0.022167855	6.079e-06
72	30616738	0.022217007	4.719e-06
72	30684322	0.022270255	7.455e-06
72	30747341	0.022319407	6.095e-06
72	30810077	0.022368559	4.735e-06
72	30877628	0.022421807	7.471e-06
72	30940676	0.022470959	6.111e-06
72	31003442	0.022520111	4.751e-06
72	31071000	0.022573359	7.487e-06
72	31134000	0.022622511	6.127e-06
72	31196760	0.022671663	4.767e-06
72	31264263	0.022724911	7.503e-06
72	31327309	0.022774063	6.143e-06
72	31390013	0.022823215	4.783e-06
72	31457365	0.022876463	7.519e-06
72	31520393	0.022925615	6.159e-06
72	31583088	0.022974767	4.799e-06
72	31650617	0.023028015	7.535e-06
72	31713657	0.023077167	6.175e-06
72	31776381	0.023126319	4.815e-06
72	31842361	0.023179567	7.551e-06
72	31903480	0.023228719	6.191e-06
72	31964595	0.023277871	4.831e-06
72	32030472	0.023331119	7.567e-06
72	32091614	0.023380271	6.207e-06
72	32152657	0.023429423	4.847e-06
72	32218620	0.023482671	7.583e-06
72	32279684	0.023531823	6.223e-06
72	32340801	0.023580975	4.863e-06
72	32406742	0.023634223	7.599e-06
72	32467894	0.023683375	6.239e-06
72	32528912	0.023732527	4.879e-06
72	32594912	0.023785775	7.615e-06
72	32656030	0.023834927	6.255e-06
72	32717103	0.023884079	4.895e-06
72	32782935	0.023937327	7.631e-06
72	32844161	0.023986479	6.271e-06
72	32905169	0.024035631	4.911e-06
72	32971222	0.024088879	7.647e-06
72	33032350	0.024138031	6.287e-06
72	33093431	0.024187183	4.927e-06
72	33159257	0.024240431	7.663e-06
72	33220463	0.024289583	6.303e-06
72	33281450	0.024338735	4.943e-06
72	33347405	0.024391983	7.679e-06
72	33408495	0.024441135	6.319e-06
72	33469598	0.024490287	4.959e-06
72	33535476	0.024543535	7.695e-06
72	33596711	0.024592687	6.335e-06
72	33657686	0.024641839	4.975e-06
72	33723588	0.024695087	7.711e-06
72	33784594	0.024744239	6.351e-06
72	33845644	0.024793391	4.991e-06
72	33911377	0.024846639	7.727e-06
72	33972497	0.024895791	6.367e-06
72	34033337	0.024944943	5.007e-06
72	34099075	0.024998191	7.743e-06
72	34160143	0.025047343	6.383e-06
72	34221070	0.025096495	5.023e-06
72	34286761	0.025149743	7.759e-06
72	34345287	0.025198895	6.399e-06
72	34403921	0.025248047	5.039e-06
72	34467279	0.025301295	7.775e-06
72	34525801	0.025350447	6.415e-06
72	34584462	0.025399599	5.055e-06
72	34647800	0.025452847	7.791e-06
72	34706325	0.025501999	6.431e-06
72	34764966	0.025551151	5.071e-06
72	34828258	0.025604399	7.807e-06
72	34886770	0.025653551	6.447e-06
72	34945381	0.025702703	5.087e-06
72	35008653	0.025755951	7.823e-06
72	35067160	0.025805103	6.463e-06
72	35125755	0.025854255	5.103e-06
72	35189002	0.025907503	7.839e-06
72	35247538	0.025956655	6.479e-06
72	35306031	0.026005807	5.119e-06
72	35369227	0.026059055	7.855e-06
72	35427606	0.026108207	6.495e-06
72	35485145	0.026157359	5.135e-06
72	35547978	0.026210607	7.871e-06
72	35606318	0.026259759	6.511e-06
72	35664677	0.026308911	5.151e-06
72	35727343	0.026362159	7.887e-06
72	35784650	0.026411311	6.527e-06
72	35842809	0.026460463	5.167e-06
72	35904818	0.026513711	7.903e-06
72	35955610	0.026562863	6.543e-06
72	36005089	0.026612015	5.183e-06
72	36058206	0.026665263	7.919e-06
72	36107592	0.026714415	6.559e-06
72	36157087	0.026763567	5.199e-06
72	36210188	0.026816815	7.935e-06
72	36259583	0.026865967	6.575e-06
72	36309065	0.026915119	5.215e-06
72	36362114	0.026968367	7.951e-06
72	36411500	0.027017519	6.591e-06
72	36460800	0.027066671	5.231e-06
72	36513863	0.027119919	7.967e-06
72	36559939	0.027169071	6.607e-06
72	36606104	0.027218223	5.247e-06
72	36655748	0.027271471	7.983e-06
72	36701864	0.027320623	6.623e-06
72	36748003	0.027369775	5.263e-06
72	36797649	0.027423023	7.999e-06
72	36843754	0.027472175	6.639e-06
72	36889919	0.027521327	5.279e-06
72	36939545	0.027574575	8.015e-06
72	36985663	0.027623727	6.655e-06
72	37031820	0.027672879	5.295e-06
72	37081465	0.027726127	8.031e-06
72	37127584	0.027775279	6.671e-06
72	37173749	0.027824431	5.311e-06
72	37223402	0.027877679	8.047e-06
72	37269503	0.027926831	6.687e-06
72	37315665	0.027975983	5.327e-06
72	37365278	0.028029231	8.063e-06
72	37411371	0.028078383	6.703e-06
72	37457437	0.028127535	5.343e-06
72	37507051	0.028180783	8.079e-06
72	37553144	0.028229935	6.719e-06
72	37599285	0.028279087	5.359e-06
72	37648885	0.028332335	8.095e-06
72	37695002	0.028381487	6.735e-06
72	37741117	0.028430639	5.375e-06
72	37790708	0.028483887	8.111e-06
72	37836815	0.028533039	6.751e-06
72	37882957	0.028582191	5.391e-06
72	37932524	0.028635439	8.127e-06
72	37978643	0.028684591	6.767e-06
72	38024777	0.028733743	5.407e-06
72	38074366	0.028786991	8.143e-06
72	38120472	0.028836143	6.783e-06
72	38166627	0.028885295	5.423e-06
72	38216226	0.028938543	8.159e-06
72	38262328	0.028987695	6.799e-06
72	38308493	0.029036847	5.439e-06
72	38358092	0.029090095	8.175e-06
72	38404125	0.029139247	6.815e-06
72	38447949	0.029188399	5.455e-06
72	38495186	0.029241647	8.191e-06
72	38538981	0.029290799	6.831e-06
72	38582789	0.029339951	5.471e-06
72	38630046	0.029393199	8.207e-06
72	38673824	0.029442351	6.847e-06
72	38717649	0.029491503	5.487e-06
72	38764892	0.029544751	8.223e-06
72	38808690	0.029593903	6.863e-06
72	38852498	0.029643055	5.503e-06
72	38899753	0.029696303	8.239e-06
72	38943542	0.029745455	6.879e-06
72	38987379	0.029794607	5.519e-06
72	39034636	0.029847855	8.255e-06
72	39078421	0.029897007	6.895e-06
72	39122270	0.029946159	5.535e-06
72	39169536	0.029999407	8.271e-06
72	39213697	0.030048559	6.911e-06
72	39257546	0.030097711	5.551e-06
72	39304802	0.030150959	8.287e-06
72	39348514	0.030200111	6.927e-06
72	39392347	0.030249263	5.567e-06
72	39439580	0.030302511	8.303e-06
72	39483373	0.030351663	6.943e-06
72	39527189	0.030400815	5.583e-06
72	39574446	0.030454063	8.319e-06
72	39618222	0.030503215	6.959e-06
72	39662069	0.030552367	5.599e-06
72	39709311	0.030605615	8.335e-06
72	39752949	0.030654767	6.975e-06
72	39796328	0.030703919	5.615e-06
72	39842539	0.030757167	8.351e-06
72	39883539	0.030806319	6.991e-06
72	39924605	0.030855471	5.631e-06
72	39968833	0.030908719	8.367e-06
72	40009819	0.030957871	7.007e-06
72	40050877	0.031007023	5.647e-06
72	40095114	0.031060271	8.383e-06
72	40136096	0.031109423	7.023e-06
73	29162920	0.021086165	3.5653e-05
73	29234796	0.021136367	3.5343e-05
73	29300327	0.021187591	3.6055e-05
73	29368172	0.021239841	3.7793e-05
73	29431005	0.021289017	3.6457e-05
73	29494584	0.021339217	3.6145e-05
73	29561935	0.021391467	3.7883e-05
73	29624706	0.021440643	3.6547e-05
73	29688300	0.021490843	3.6235e-05
73	29755657	0.021543093	3.7973e-05
73	29818386	0.021592269	3.6637e-05
73	29882016	0.021642469	3.6325e-05
73	29949420	0.021694719	3.8063e-05
73	30012166	0.021743895	3.6727e-05
73	30075638	0.021794095	3.6415e-05
73	30142319	0.021845321	3.7129e-05
73	30204907	0.021894497	3.5793e-05
73	30268458	0.021944697	3.5481e-05
73	30335543	0.021996947	3.7219e-05
73	30398143	0.022046123	3.5883e-05
73	30461735	0.022096323	3.5571e-05
73	30528866	0.022148573	3.7309e-05
73	30591474	0.022197749	3.5973e-05
73	30655088	0.022247949	3.5661e-05
73	30722264	0.022300199	3.7399e-05
73	30784889	0.022349375	3.6063e-05
73	30848431	0.022399575	3.5751e-05
73	30915617	0.022451825	3.7489e-05
73	30978235	0.022501001	3.6153e-05
73	31041338	0.022550177	3.4817e-05
73	31109017	0.022603451	3.7579e-05
73	31171602	0.022652627	3.6243e-05
73	31234637	0.022701803	3.4907e-05
73	31302327	0.022755077	3.7669e-05
73	31364892	0.022804253	3.6333e-05
73	31427851	0.022853429	3.4997e-05
73	31495510	0.022906703	3.7759e-05
73	31558115	0.022955879	3.6423e-05
73	31621139	0.023005055	3.5087e-05
73	31688825	0.023058329	3.7849e-05
73	31751436	0.023107505	3.6513e-05
73	31812710	0.023156681	3.5177e-05
73	31878588	0.023209955	3.7939e-05
73	31939511	0.023259131	3.6603e-05
73	32000893	0.023308307	3.5267e-05
73	32066779	0.023361581	3.8029e-05
73	32127629	0.023410757	3.6693e-05
73	32189068	0.023459933	3.5357e-05
73	32254862	0.023513207	3.8119e-05
73	32315766	0.023562383	3.6783e-05
73	32377160	0.023611559	3.5447e-05
73	32443066	0.023664833	3.8209e-05
73	32503900	0.023714009	3.6873e-05
73	32565360	0.023763185	3.5537e-05
73	32631204	0.023816459	3.8299e-05
73	32692121	0.023865635	3.6963e-05
73	32753414	0.023914811	3.5627e-05
73	32818866	0.023967061	3.7365e-05
73	32879711	0.024016237	3.6029e-05
73	32941211	0.024065413	3.4693e-05
73	33007114	0.024118687	3.7455e-05
73	33068060	0.024167863	3.6119e-05
73	33129360	0.024217039	3.4783e-05
73	33195270	0.024270313	3.7545e-05
73	33256141	0.024319489	3.6209e-05
73	33317578	0.024368665	3.4873e-05
73	33383384	0.024421939	3.7635e-05
73	33444356	0.024471115	3.6299e-05
73	33505666	0.024520291	3.4963e-05
73	33571610	0.024573565	3.7725e-05
73	33632478	0.024622741	3.6389e-05
73	33693845	0.024671917	3.5053e-05
73	33759555	0.024725191	3.7815e-05
73	33820474	0.024774367	3.6479e-05
73	33881666	0.024823543	3.5143e-05
73	33947486	0.024876817	3.7905e-05
73	34008283	0.024925993	3.6569e-05
73	34069415	0.024975169	3.5233e-05
73	34135198	0.025028443	3.7995e-05
73	34196028	0.025077619	3.6659e-05
73	34257235	0.025126795	3.5323e-05
73	34320380	0.025180069	3.8085e-05
73	34378942	0.025229245	3.6749e-05
73	34437780	0.025278421	3.5413e-05
73	34500932	0.025331695	3.8175e-05
73	34559523	0.025380871	3.6839e-05
73	34618359	0.025430047	3.5503e-05
73	34681504	0.025483321	3.8265e-05
73	34740065	0.025532497	3.6929e-05
73	34798854	0.025581673	3.5593e-05
73	34861961	0.025634947	3.8355e-05
73	34920501	0.025684123	3.7019e-05
73	34979271	0.025733299	3.5683e-05
73	35042341	0.025786573	3.8445e-05
73	35100889	0.025835749	3.7109e-05
73	35159642	0.025884925	3.5773e-05
73	35222732	0.025938199	3.8535e-05
73	35281236	0.025987375	3.7199e-05
73	35339426	0.026035527	3.4839e-05
73	35402496	0.026088801	3.7601e-05
73	35460334	0.026137977	3.6265e-05
73	35518350	0.026187153	3.4929e-05
73	35581152	0.026240427	3.7691e-05
73	35639485	0.026289603	3.6355e-05
73	35697973	0.026338779	3.5019e-05
73	35759882	0.026392053	3.7781e-05
73	35781601	0.026409469	4.685e-06
73	35842434	0.026460181	4.885e-06
73	35900913	0.026509871	4.063e-06
73	35952983	0.026561095	4.775e-06
73	36004957	0.026611807	4.975e-06
73	36054888	0.026661497	4.153e-06
73	36104973	0.026712721	4.865e-06
73	36154573	0.026762921	4.553e-06
73	36206889	0.026813123	4.243e-06
73	36256956	0.026864347	4.955e-06
73	36306559	0.026914547	4.643e-06
73	36358824	0.026964749	4.333e-06
73	36408877	0.027015973	5.045e-06
73	36458316	0.027066173	4.733e-06
73	36510795	0.027116887	4.935e-06
73	36557229	0.027167087	4.623e-06
73	36603646	0.027217799	4.823e-06
73	36652544	0.027268001	4.513e-06
73	36699173	0.027318713	4.713e-06
73	36745592	0.027369425	4.913e-06
73	36794165	0.027419115	4.091e-06
73	36841101	0.027470339	4.803e-06
73	36889631	0.027521051	5.003e-06
73	36936193	0.027570741	4.181e-06
73	36983036	0.027621965	4.893e-06
73	37029330	0.027672165	4.581e-06
73	37078149	0.027722367	4.271e-06
73	37124965	0.027773591	4.983e-06
73	37171259	0.027823791	4.671e-06
73	37220096	0.027873993	4.361e-06
73	37266747	0.027924705	4.561e-06
73	37313183	0.027975417	4.761e-06
73	37361988	0.028025619	4.451e-06
73	37408628	0.028076331	4.651e-06
73	37454977	0.028127043	4.851e-06
73	37503804	0.028177245	4.541e-06
73	37550434	0.028227957	4.741e-06
73	37596851	0.028278669	4.941e-06
73	37645377	0.028328359	4.119e-06
73	37692311	0.028379583	4.831e-06
73	37738734	0.028430295	5.031e-06
73	37787224	0.028479985	4.209e-06
73	37834162	0.028531209	4.921e-06
73	37880465	0.028581409	4.609e-06
73	37929193	0.028631611	4.299e-06
73	37976016	0.028682835	5.011e-06
73	38022315	0.028733035	4.699e-06
73	38071056	0.028783237	4.389e-06
73	38117723	0.028833949	4.589e-06
73	38164181	0.028884661	4.789e-06
73	38212924	0.028934863	4.479e-06
73	38259572	0.028985575	4.679e-06
73	38306039	0.029036287	4.879e-06
73	38354803	0.029086489	4.569e-06
73	38401392	0.029137201	4.769e-06
73	38445517	0.029187913	4.969e-06
73	38491659	0.029237603	4.147e-06
73	38536272	0.029288827	4.859e-06
73	38580396	0.029339539	5.059e-06
73	38626538	0.029389229	4.237e-06
73	38671155	0.029440453	4.949e-06
73	38715157	0.029490653	4.637e-06
73	38761420	0.029540855	4.327e-06
73	38806037	0.029592079	5.039e-06
73	38850042	0.029642279	4.727e-06
73	38896422	0.029692481	4.417e-06
73	38940788	0.029743193	4.617e-06
73	38984933	0.029793905	4.817e-06
73	39031326	0.029844107	4.507e-06
73	39075672	0.029894819	4.707e-06
73	39119824	0.029945531	4.907e-06
73	39166234	0.029995733	4.597e-06
73	39210941	0.030046445	4.797e-06
73	39255092	0.030097157	4.997e-06
73	39301513	0.030147359	4.687e-06
73	39345780	0.030198071	4.887e-06
73	39389790	0.030248271	4.575e-06
73	39436053	0.030298473	4.265e-06
73	39480667	0.030349697	4.977e-06
73	39524675	0.030399897	4.665e-06
73	39570938	0.030450099	4.355e-06
73	39615418	0.030500811	4.555e-06
73	39659579	0.030551523	4.755e-06
73	39705842	0.030601725	4.445e-06
73	39750178	0.030652437	4.645e-06
73	39793919	0.030703149	4.845e-06
73	39839385	0.030753351	4.535e-06
73	39880907	0.030804063	4.735e-06
73	39922258	0.030854775	4.935e-06
73	39965715	0.030904977	4.625e-06
73	40007179	0.030955689	4.825e-06
73	40048530	0.031006401	5.025e-06
73	40091990	0.031056603	4.715e-06
73	40133448	0.031107315	4.915e-06
74	29184580	0.021100523	5.0011e-05
74	29251541	0.021149699	4.8675e-05
74	29316479	0.021199899	4.8363e-05
74	29383432	0.021251125	4.9077e-05
74	29445454	0.021299275	4.6715e-05
74	29508853	0.021348451	4.5379e-05
74	29573297	0.021399677	4.6093e-05
74	29635558	0.021447829	4.3733e-05
74	29698342	0.021497005	4.2397e-05
74	29762630	0.021548229	4.3109e-05
74	29822772	0.021596381	4.0749e-05
74	29886007	0.021645557	3.9413e-05
74	29952592	0.021696783	4.0127e-05
74	30012579	0.021744933	3.7765e-05
74	30078374	0.021795121	3.7441e-05
74	30142834	0.021846345	3.8153e-05
74	30205421	0.021895521	3.6817e-05
74	30268847	0.021945721	3.6505e-05
74	30336058	0.021997971	3.8243e-05
74	30398657	0.022047147	3.6907e-05
74	30462124	0.022097347	3.6595e-05
74	30529381	0.022149597	3.8333e-05
74	30591988	0.022198773	3.6997e-05
74	30655474	0.022248973	3.6685e-05
74	30722730	0.022301223	3.8423e-05
74	30785343	0.022350399	3.7087e-05
74	30848817	0.022400599	3.6775e-05
74	30916069	0.022452849	3.8513e-05
74	30978682	0.022502025	3.7177e-05
74	31041774	0.022551201	3.5841e-05
74	31109454	0.022604475	3.8603e-05
74	31172035	0.022653651	3.7267e-05
74	31235069	0.022702827	3.5931e-05
74	31302749	0.022756101	3.8693e-05
74	31365313	0.022805277	3.7357e-05
74	31428268	0.022854453	3.6021e-05
74	31495918	0.022907727	3.8783e-05
74	31558531	0.022956903	3.7447e-05
74	31621555	0.023006079	3.6111e-05
74	31689233	0.023059353	3.8873e-05
74	31751852	0.023108529	3.7537e-05
74	31813126	0.023157705	3.6201e-05
74	31879004	0.023210979	3.8963e-05
74	31939927	0.023260155	3.7627e-05
74	32001287	0.023309331	3.6291e-05
74	32067173	0.023362605	3.9053e-05
74	32128023	0.023411781	3.7717e-05
74	32189462	0.023460957	3.6381e-05
74	32255255	0.023514231	3.9143e-05
74	32316159	0.023563407	3.7807e-05
74	32377553	0.023612583	3.6471e-05
74	32443458	0.023665857	3.9233e-05
74	32504292	0.023715033	3.7897e-05
74	32565752	0.023764209	3.6561e-05
74	32631596	0.023817483	3.9323e-05
74	32692513	0.023866659	3.7987e-05
74	32753802	0.023915835	3.6651e-05
74	32819380	0.023968085	3.8389e-05
74	32880225	0.024017261	3.7053e-05
74	32941725	0.024066437	3.5717e-05
74	33007628	0.024119711	3.8479e-05
74	33068574	0.024168887	3.7143e-05
74	33129874	0.024218063	3.5807e-05
74	33195784	0.024271337	3.8569e-05
74	33256640	0.024320513	3.7233e-05
74	33318043	0.024369689	3.5897e-05
74	33383849	0.024422963	3.8659e-05
74	33444810	0.024472139	3.7323e-05
74	33506120	0.024521315	3.5987e-05
74	33572060	0.024574589	3.8749e-05
74	33632925	0.024623765	3.7413e-05
74	33694281	0.024672941	3.6077e-05
74	33759991	0.024726215	3.8839e-05
74	33820907	0.024775391	3.7503e-05
74	33882098	0.024824567	3.6167e-05
74	33947907	0.024877841	3.8929e-05
74	34008704	0.024927017	3.7593e-05
74	34069832	0.024976193	3.6257e-05
74	34135614	0.025029467	3.9019e-05
74	34196444	0.025078643	3.7683e-05
74	34257651	0.025127819	3.6347e-05
74	34320796	0.025181093	3.9109e-05
74	34379358	0.025230269	3.7773e-05
74	34438196	0.025279445	3.6437e-05
74	34501348	0.025332719	3.9199e-05
74	34559917	0.025381895	3.7863e-05
74	34618753	0.025431071	3.6527e-05
74	34681898	0.025484345	3.9289e-05
74	34740459	0.025533521	3.7953e-05
74	34799247	0.025582697	3.6617e-05
74	34862354	0.025635971	3.9379e-05
74	34920894	0.025685147	3.8043e-05
74	34979664	0.025734323	3.6707e-05
74	35042733	0.025787597	3.9469e-05
74	35101281	0.025836773	3.8133e-05
74	35160034	0.025885949	3.6797e-05
74	35223124	0.025939223	3.9559e-05
74	35281624	0.025988399	3.8223e-05
74	35339940	0.026036551	3.5863e-05
74	35403010	0.026089825	3.8625e-05
74	35460829	0.026139001	3.7289e-05
74	35518865	0.026188177	3.5953e-05
74	35581668	0.026241451	3.8715e-05
74	35640000	0.026290627	3.7379e-05
74	35698475	0.026339803	3.6043e-05
74	35760379	0.026393077	3.8805e-05
74	35782017	0.026410493	5.709e-06
74	35843424	0.026461207	5.911e-06
74	35901491	0.026510895	5.087e-06
74	35953232	0.026562119	5.799e-06
74	36005567	0.026612833	6.001e-06
74	36055299	0.026662521	5.177e-06
74	36105222	0.026713745	5.889e-06
74	36157339	0.026763947	5.579e-06
74	36207295	0.026814147	5.267e-06
74	36257205	0.026865371	5.979e-06
74	36309315	0.026915573	5.669e-06
74	36359228	0.026965773	5.357e-06
74	36409126	0.027016997	6.069e-06
74	36461108	0.027067199	5.759e-06
74	36511138	0.027117911	5.959e-06
74	36557484	0.027168111	5.647e-06
74	36606435	0.027218825	5.849e-06
74	36652932	0.027269025	5.537e-06
74	36699428	0.027319737	5.737e-06
74	36748373	0.027370451	5.939e-06
74	36794658	0.027420139	5.115e-06
74	36841354	0.027471363	5.827e-06
74	36890359	0.027522077	6.029e-06
74	36936618	0.027571765	5.205e-06
74	36983285	0.027622989	5.917e-06
74	37032054	0.027673191	5.607e-06
74	37078559	0.027723391	5.295e-06
74	37125214	0.027774615	6.007e-06
74	37174001	0.027824817	5.697e-06
74	37220501	0.027875017	5.385e-06
74	37267002	0.027925729	5.585e-06
74	37315915	0.027976443	5.787e-06
74	37362392	0.028026643	5.475e-06
74	37408883	0.028077355	5.675e-06
74	37457742	0.028128069	5.877e-06
74	37504192	0.028178269	5.565e-06
74	37550689	0.028228981	5.765e-06
74	37599616	0.028279695	5.967e-06
74	37645870	0.028329383	5.143e-06
74	37692566	0.028380607	5.855e-06
74	37741487	0.028431321	6.057e-06
74	37787717	0.028481009	5.233e-06
74	37834415	0.028532233	5.945e-06
74	37883132	0.028582435	5.635e-06
74	37929606	0.028632635	5.323e-06
74	37976265	0.028683859	6.035e-06
74	38025010	0.028734061	5.725e-06
74	38071462	0.028784261	5.413e-06
74	38117979	0.028834973	5.613e-06
74	38166879	0.028885687	5.815e-06
74	38213328	0.028935887	5.503e-06
74	38259827	0.028986599	5.703e-06
74	38308754	0.029037313	5.905e-06
74	38355207	0.029087513	5.593e-06
74	38401646	0.029138225	5.793e-06
74	38448254	0.029188939	5.995e-06
74	38492152	0.029238627	5.171e-06
74	38536527	0.029289851	5.883e-06
74	38583133	0.029340565	6.085e-06
74	38627031	0.029390253	5.261e-06
74	38671410	0.029441477	5.973e-06
74	38717716	0.029491679	5.663e-06
74	38761913	0.029541879	5.351e-06
74	38806290	0.029593103	6.063e-06
74	38852693	0.029643305	5.753e-06
74	38896835	0.029693505	5.441e-06
74	38941045	0.029744217	5.641e-06
74	38987612	0.029794931	5.843e-06
74	39031732	0.029845131	5.531e-06
74	39075928	0.029895843	5.731e-06
74	39122522	0.029946557	5.933e-06
74	39166638	0.029996757	5.621e-06
74	39211196	0.030047469	5.821e-06
74	39257807	0.030098183	6.023e-06
74	39301917	0.030148383	5.711e-06
74	39346035	0.030199095	5.911e-06
74	39392361	0.030249297	5.601e-06
74	39436546	0.030299497	5.289e-06
74	39480922	0.030350721	6.001e-06
74	39527234	0.030400923	5.691e-06
74	39571431	0.030451123	5.379e-06
74	39615689	0.030501835	5.579e-06
74	39662138	0.030552549	5.781e-06
74	39706336	0.030602749	5.469e-06
74	39750439	0.030653461	5.669e-06
74	39796513	0.030704175	5.871e-06
74	39839752	0.030754375	5.559e-06
74	39881157	0.030805087	5.759e-06
74	39924800	0.030855801	5.961e-06
74	39966069	0.030906001	5.649e-06
74	40007429	0.030956713	5.849e-06
74	40051077	0.031007427	6.051e-06
74	40092342	0.031057627	5.739e-06
74	40133698	0.031108339	5.939e-06

