version 2
run General-0-20200106-11:00:45-37760
attr configname General
attr datetime 20200106-11:00:45
attr experiment General
attr inifile fat-tree.ini
attr iterationvars ""
attr iterationvars2 $repetition=0
attr measurement ""
attr network ib_model.examples.evaluation_fattree648.fattree_648_network
attr processid 37760
attr repetition 0
attr replication #0
attr resultdir results
attr runnumber 0
attr seedset 0
param **.**servers[*].obuf.size 2
param **.**servers[*].vlarb.busWidth 16B
param **.**servers[*].vlarb.coreFreq 1000MHz
param **.**switches[*]**.fdbsVecFile "\"fat_tree_648.fdbs\""
param **.**switches[*].**.obuf.size 4
param **.**switches[*].**.vlarb.busWidth 24B
param **.**switches[*].**.vlarb.coreFreq 1200MHz
param **.**switches[*].port[*].ibuf.maxStatic* 32
param **.CCT_Timer 25us
param **.ISWDelay 50ns
param **.VSWDelay 50ns
param **.app.dstSeqVecFile "\"\""
param **.app.dstSeqVecIdx 0
param **.dstMode "\"param\""
param **.flit2FlitGap 0.001ns
param **.flitSize 2048B
param **.genDlyPerByte 0.25ns
param **.ibuf.lossyMode false
param **.leaf_switches[0]**.fdbIndex 0
param **.leaf_switches[10]**.fdbIndex 10
param **.leaf_switches[11]**.fdbIndex 11
param **.leaf_switches[12]**.fdbIndex 12
param **.leaf_switches[13]**.fdbIndex 13
param **.leaf_switches[14]**.fdbIndex 14
param **.leaf_switches[15]**.fdbIndex 15
param **.leaf_switches[16]**.fdbIndex 16
param **.leaf_switches[17]**.fdbIndex 17
param **.leaf_switches[18]**.fdbIndex 18
param **.leaf_switches[19]**.fdbIndex 19
param **.leaf_switches[1]**.fdbIndex 1
param **.leaf_switches[20]**.fdbIndex 20
param **.leaf_switches[21]**.fdbIndex 21
param **.leaf_switches[22]**.fdbIndex 22
param **.leaf_switches[23]**.fdbIndex 23
param **.leaf_switches[24]**.fdbIndex 24
param **.leaf_switches[25]**.fdbIndex 25
param **.leaf_switches[26]**.fdbIndex 26
param **.leaf_switches[27]**.fdbIndex 27
param **.leaf_switches[28]**.fdbIndex 28
param **.leaf_switches[29]**.fdbIndex 29
param **.leaf_switches[2]**.fdbIndex 2
param **.leaf_switches[30]**.fdbIndex 30
param **.leaf_switches[31]**.fdbIndex 31
param **.leaf_switches[32]**.fdbIndex 32
param **.leaf_switches[33]**.fdbIndex 33
param **.leaf_switches[34]**.fdbIndex 34
param **.leaf_switches[35]**.fdbIndex 35
param **.leaf_switches[3]**.fdbIndex 3
param **.leaf_switches[4]**.fdbIndex 4
param **.leaf_switches[5]**.fdbIndex 5
param **.leaf_switches[6]**.fdbIndex 6
param **.leaf_switches[7]**.fdbIndex 7
param **.leaf_switches[8]**.fdbIndex 8
param **.leaf_switches[9]**.fdbIndex 9
param **.maxContPkts 10
param **.maxQueuedPerVL 10
param **.maxVL 0
param **.msgLenMode "\"param\""
param **.msgLenProb "\"1 1 1 1\""
param **.msgLenSet "\"4096 4096 4096\""
param **.msgMtuLen 2048B
param **.msgSQ 0
param **.obuf.credMinTime 4.096us
param **.obuf.width 4
param **.on_cc 0
param **.on_newcc 1
param **.pkt2PktGap 0.001ns
param **.pktFwdType "\"Pktfwd\""
param **.pktfwd.ARAdaptThd 4
param **.pktfwd.AdaptMode "\"none\""
param **.pktfwd.GreedyRandSize 3
param **.pktfwd.LIDBindTime 2us
param **.pktfwd.OPSelAlgo "\"greedy\""
param **.pktfwd.OPSelOffsetByDLID 0
param **.pktfwd.TQBusy1Thd 20
param **.pktfwd.TQBusy2Thd 40
param **.pktfwd.TQBusy3Thd 80
param **.pktfwd.statRepTime 10us
param **.popDlyPerByte 0.25ns
param **.servers[*].app.endTime 0.001
param **.servers[*].app.msg2msgGap 1ns
param **.servers[*].app.msgLength 4194304*20B
param **.servers[*].app.msgNum 1
param **.servers[*].gen.startTime 0
param **.servers[0].**.on_throughput_obuf 1
param **.servers[0].app.dstLid 19
param **.servers[0].srcLid 1
param **.servers[100].srcLid 101
param **.servers[101].srcLid 102
param **.servers[102].srcLid 103
param **.servers[103].srcLid 104
param **.servers[104].srcLid 105
param **.servers[105].srcLid 106
param **.servers[106].srcLid 107
param **.servers[107].srcLid 108
param **.servers[108].srcLid 109
param **.servers[109].srcLid 110
param **.servers[10].srcLid 11
param **.servers[110].srcLid 111
param **.servers[111].srcLid 112
param **.servers[112].srcLid 113
param **.servers[113].srcLid 114
param **.servers[114].srcLid 115
param **.servers[115].srcLid 116
param **.servers[116].srcLid 117
param **.servers[117].srcLid 118
param **.servers[118].srcLid 119
param **.servers[119].srcLid 120
param **.servers[11].srcLid 12
param **.servers[120].srcLid 121
param **.servers[121].srcLid 122
param **.servers[122].srcLid 123
param **.servers[123].srcLid 124
param **.servers[124].srcLid 125
param **.servers[125].srcLid 126
param **.servers[126].srcLid 127
param **.servers[127].srcLid 128
param **.servers[128].srcLid 129
param **.servers[129].srcLid 130
param **.servers[12].srcLid 13
param **.servers[130].srcLid 131
param **.servers[131].srcLid 132
param **.servers[132].srcLid 133
param **.servers[133].srcLid 134
param **.servers[134].srcLid 135
param **.servers[135].srcLid 136
param **.servers[136].srcLid 137
param **.servers[137].srcLid 138
param **.servers[138].srcLid 139
param **.servers[139].srcLid 140
param **.servers[13].srcLid 14
param **.servers[140].srcLid 141
param **.servers[141].srcLid 142
param **.servers[142].srcLid 143
param **.servers[143].srcLid 144
param **.servers[144].srcLid 145
param **.servers[145].srcLid 146
param **.servers[146].srcLid 147
param **.servers[147].srcLid 148
param **.servers[148].srcLid 149
param **.servers[149].srcLid 150
param **.servers[14].srcLid 15
param **.servers[150].srcLid 151
param **.servers[151].srcLid 152
param **.servers[152].srcLid 153
param **.servers[153].srcLid 154
param **.servers[154].srcLid 155
param **.servers[155].srcLid 156
param **.servers[156].srcLid 157
param **.servers[157].srcLid 158
param **.servers[158].srcLid 159
param **.servers[159].srcLid 160
param **.servers[15].srcLid 16
param **.servers[160].srcLid 161
param **.servers[161].srcLid 162
param **.servers[162].srcLid 163
param **.servers[163].srcLid 164
param **.servers[164].srcLid 165
param **.servers[165].srcLid 166
param **.servers[166].srcLid 167
param **.servers[167].srcLid 168
param **.servers[168].srcLid 169
param **.servers[169].srcLid 170
param **.servers[16].srcLid 17
param **.servers[170].srcLid 171
param **.servers[171].srcLid 172
param **.servers[172].srcLid 173
param **.servers[173].srcLid 174
param **.servers[174].srcLid 175
param **.servers[175].srcLid 176
param **.servers[176].srcLid 177
param **.servers[177].srcLid 178
param **.servers[178].srcLid 179
param **.servers[179].srcLid 180
param **.servers[17].srcLid 18
param **.servers[180].srcLid 181
param **.servers[181].srcLid 182
param **.servers[182].srcLid 183
param **.servers[183].srcLid 184
param **.servers[184].srcLid 185
param **.servers[185].srcLid 186
param **.servers[186].srcLid 187
param **.servers[187].srcLid 188
param **.servers[188].srcLid 189
param **.servers[189].srcLid 190
param **.servers[18].srcLid 19
param **.servers[190].srcLid 191
param **.servers[191].srcLid 192
param **.servers[192].srcLid 193
param **.servers[193].srcLid 194
param **.servers[194].srcLid 195
param **.servers[195].srcLid 196
param **.servers[196].srcLid 197
param **.servers[197].srcLid 198
param **.servers[198].srcLid 199
param **.servers[199].srcLid 200
param **.servers[19].srcLid 20
param **.servers[1].**.on_throughput_obuf 1
param **.servers[1].app.dstLid 19
param **.servers[1].srcLid 2
param **.servers[200].srcLid 201
param **.servers[201].srcLid 202
param **.servers[202].srcLid 203
param **.servers[203].srcLid 204
param **.servers[204].srcLid 205
param **.servers[205].srcLid 206
param **.servers[206].srcLid 207
param **.servers[207].srcLid 208
param **.servers[208].srcLid 209
param **.servers[209].srcLid 210
param **.servers[20].srcLid 21
param **.servers[210].srcLid 211
param **.servers[211].srcLid 212
param **.servers[212].srcLid 213
param **.servers[213].srcLid 214
param **.servers[214].srcLid 215
param **.servers[215].srcLid 216
param **.servers[216].srcLid 217
param **.servers[217].srcLid 218
param **.servers[218].srcLid 219
param **.servers[219].srcLid 220
param **.servers[21].srcLid 22
param **.servers[220].srcLid 221
param **.servers[221].srcLid 222
param **.servers[222].srcLid 223
param **.servers[223].srcLid 224
param **.servers[224].srcLid 225
param **.servers[225].srcLid 226
param **.servers[226].srcLid 227
param **.servers[227].srcLid 228
param **.servers[228].srcLid 229
param **.servers[229].srcLid 230
param **.servers[22].srcLid 23
param **.servers[230].srcLid 231
param **.servers[231].srcLid 232
param **.servers[232].srcLid 233
param **.servers[233].srcLid 234
param **.servers[234].srcLid 235
param **.servers[235].srcLid 236
param **.servers[236].srcLid 237
param **.servers[237].srcLid 238
param **.servers[238].srcLid 239
param **.servers[239].srcLid 240
param **.servers[23].srcLid 24
param **.servers[240].srcLid 241
param **.servers[241].srcLid 242
param **.servers[242].srcLid 243
param **.servers[243].srcLid 244
param **.servers[244].srcLid 245
param **.servers[245].srcLid 246
param **.servers[246].srcLid 247
param **.servers[247].srcLid 248
param **.servers[248].srcLid 249
param **.servers[249].srcLid 250
param **.servers[24].srcLid 25
param **.servers[250].srcLid 251
param **.servers[251].srcLid 252
param **.servers[252].srcLid 253
param **.servers[253].srcLid 254
param **.servers[254].srcLid 255
param **.servers[255].srcLid 256
param **.servers[256].srcLid 257
param **.servers[257].srcLid 258
param **.servers[258].srcLid 259
param **.servers[259].srcLid 260
param **.servers[25].srcLid 26
param **.servers[260].srcLid 261
param **.servers[261].srcLid 262
param **.servers[262].srcLid 263
param **.servers[263].srcLid 264
param **.servers[264].srcLid 265
param **.servers[265].srcLid 266
param **.servers[266].srcLid 267
param **.servers[267].srcLid 268
param **.servers[268].srcLid 269
param **.servers[269].srcLid 270
param **.servers[26].srcLid 27
param **.servers[270].srcLid 271
param **.servers[271].srcLid 272
param **.servers[272].srcLid 273
param **.servers[273].srcLid 274
param **.servers[274].srcLid 275
param **.servers[275].srcLid 276
param **.servers[276].srcLid 277
param **.servers[277].srcLid 278
param **.servers[278].srcLid 279
param **.servers[279].srcLid 280
param **.servers[27].srcLid 28
param **.servers[280].srcLid 281
param **.servers[281].srcLid 282
param **.servers[282].srcLid 283
param **.servers[283].srcLid 284
param **.servers[284].srcLid 285
param **.servers[285].srcLid 286
param **.servers[286].srcLid 287
param **.servers[287].srcLid 288
param **.servers[288].srcLid 289
param **.servers[289].srcLid 290
param **.servers[28].srcLid 29
param **.servers[290].srcLid 291
param **.servers[291].srcLid 292
param **.servers[292].srcLid 293
param **.servers[293].srcLid 294
param **.servers[294].srcLid 295
param **.servers[295].srcLid 296
param **.servers[296].srcLid 297
param **.servers[297].srcLid 298
param **.servers[298].srcLid 299
param **.servers[299].srcLid 300
param **.servers[29].srcLid 30
param **.servers[2].**.on_throughput_obuf 1
param **.servers[2].app.dstLid 19
param **.servers[2].srcLid 3
param **.servers[300].srcLid 301
param **.servers[301].srcLid 302
param **.servers[302].srcLid 303
param **.servers[303].srcLid 304
param **.servers[304].srcLid 305
param **.servers[305].srcLid 306
param **.servers[306].srcLid 307
param **.servers[307].srcLid 308
param **.servers[308].srcLid 309
param **.servers[309].srcLid 310
param **.servers[30].srcLid 31
param **.servers[310].srcLid 311
param **.servers[311].srcLid 312
param **.servers[312].srcLid 313
param **.servers[313].srcLid 314
param **.servers[314].srcLid 315
param **.servers[315].srcLid 316
param **.servers[316].srcLid 317
param **.servers[317].srcLid 318
param **.servers[318].srcLid 319
param **.servers[319].srcLid 320
param **.servers[31].srcLid 32
param **.servers[320].srcLid 321
param **.servers[321].srcLid 322
param **.servers[322].srcLid 323
param **.servers[323].srcLid 324
param **.servers[324].srcLid 325
param **.servers[325].srcLid 326
param **.servers[326].srcLid 327
param **.servers[327].srcLid 328
param **.servers[328].srcLid 329
param **.servers[329].srcLid 330
param **.servers[32].srcLid 33
param **.servers[330].srcLid 331
param **.servers[331].srcLid 332
param **.servers[332].srcLid 333
param **.servers[333].srcLid 334
param **.servers[334].srcLid 335
param **.servers[335].srcLid 336
param **.servers[336].srcLid 337
param **.servers[337].srcLid 338
param **.servers[338].srcLid 339
param **.servers[339].srcLid 340
param **.servers[33].srcLid 34
param **.servers[340].srcLid 341
param **.servers[341].srcLid 342
param **.servers[342].srcLid 343
param **.servers[343].srcLid 344
param **.servers[344].srcLid 345
param **.servers[345].srcLid 346
param **.servers[346].srcLid 347
param **.servers[347].srcLid 348
param **.servers[348].srcLid 349
param **.servers[349].srcLid 350
param **.servers[34].srcLid 35
param **.servers[350].srcLid 351
param **.servers[351].srcLid 352
param **.servers[352].srcLid 353
param **.servers[353].srcLid 354
param **.servers[354].srcLid 355
param **.servers[355].srcLid 356
param **.servers[356].srcLid 357
param **.servers[357].srcLid 358
param **.servers[358].srcLid 359
param **.servers[359].srcLid 360
param **.servers[35].srcLid 36
param **.servers[360].srcLid 361
param **.servers[361].srcLid 362
param **.servers[362].srcLid 363
param **.servers[363].srcLid 364
param **.servers[364].srcLid 365
param **.servers[365].srcLid 366
param **.servers[366].srcLid 367
param **.servers[367].srcLid 368
param **.servers[368].srcLid 369
param **.servers[369].srcLid 370
param **.servers[36].srcLid 37
param **.servers[370].srcLid 371
param **.servers[371].srcLid 372
param **.servers[372].srcLid 373
param **.servers[373].srcLid 374
param **.servers[374].srcLid 375
param **.servers[375].srcLid 376
param **.servers[376].srcLid 377
param **.servers[377].srcLid 378
param **.servers[378].srcLid 379
param **.servers[379].srcLid 380
param **.servers[37].srcLid 38
param **.servers[380].srcLid 381
param **.servers[381].srcLid 382
param **.servers[382].srcLid 383
param **.servers[383].srcLid 384
param **.servers[384].srcLid 385
param **.servers[385].srcLid 386
param **.servers[386].srcLid 387
param **.servers[387].srcLid 388
param **.servers[388].srcLid 389
param **.servers[389].srcLid 390
param **.servers[38].srcLid 39
param **.servers[390].srcLid 391
param **.servers[391].srcLid 392
param **.servers[392].srcLid 393
param **.servers[393].srcLid 394
param **.servers[394].srcLid 395
param **.servers[395].srcLid 396
param **.servers[396].srcLid 397
param **.servers[397].srcLid 398
param **.servers[398].srcLid 399
param **.servers[399].srcLid 400
param **.servers[39].srcLid 40
param **.servers[3].**.on_throughput_obuf 1
param **.servers[3].app.dstLid 19
param **.servers[3].srcLid 4
param **.servers[400].srcLid 401
param **.servers[401].srcLid 402
param **.servers[402].srcLid 403
param **.servers[403].srcLid 404
param **.servers[404].srcLid 405
param **.servers[405].srcLid 406
param **.servers[406].srcLid 407
param **.servers[407].srcLid 408
param **.servers[408].srcLid 409
param **.servers[409].srcLid 410
param **.servers[40].srcLid 41
param **.servers[410].srcLid 411
param **.servers[411].srcLid 412
param **.servers[412].srcLid 413
param **.servers[413].srcLid 414
param **.servers[414].srcLid 415
param **.servers[415].srcLid 416
param **.servers[416].srcLid 417
param **.servers[417].srcLid 418
param **.servers[418].srcLid 419
param **.servers[419].srcLid 420
param **.servers[41].srcLid 42
param **.servers[420].srcLid 421
param **.servers[421].srcLid 422
param **.servers[422].srcLid 423
param **.servers[423].srcLid 424
param **.servers[424].srcLid 425
param **.servers[425].srcLid 426
param **.servers[426].srcLid 427
param **.servers[427].srcLid 428
param **.servers[428].srcLid 429
param **.servers[429].srcLid 430
param **.servers[42].srcLid 43
param **.servers[430].srcLid 431
param **.servers[431].srcLid 432
param **.servers[432].srcLid 433
param **.servers[433].srcLid 434
param **.servers[434].srcLid 435
param **.servers[435].srcLid 436
param **.servers[436].srcLid 437
param **.servers[437].srcLid 438
param **.servers[438].srcLid 439
param **.servers[439].srcLid 440
param **.servers[43].srcLid 44
param **.servers[440].srcLid 441
param **.servers[441].srcLid 442
param **.servers[442].srcLid 443
param **.servers[443].srcLid 444
param **.servers[444].srcLid 445
param **.servers[445].srcLid 446
param **.servers[446].srcLid 447
param **.servers[447].srcLid 448
param **.servers[448].srcLid 449
param **.servers[449].srcLid 450
param **.servers[44].srcLid 45
param **.servers[450].srcLid 451
param **.servers[451].srcLid 452
param **.servers[452].srcLid 453
param **.servers[453].srcLid 454
param **.servers[454].srcLid 455
param **.servers[455].srcLid 456
param **.servers[456].srcLid 457
param **.servers[457].srcLid 458
param **.servers[458].srcLid 459
param **.servers[459].srcLid 460
param **.servers[45].srcLid 46
param **.servers[460].srcLid 461
param **.servers[461].srcLid 462
param **.servers[462].srcLid 463
param **.servers[463].srcLid 464
param **.servers[464].srcLid 465
param **.servers[465].srcLid 466
param **.servers[466].srcLid 467
param **.servers[467].srcLid 468
param **.servers[468].srcLid 469
param **.servers[469].srcLid 470
param **.servers[46].srcLid 47
param **.servers[470].srcLid 471
param **.servers[471].srcLid 472
param **.servers[472].srcLid 473
param **.servers[473].srcLid 474
param **.servers[474].srcLid 475
param **.servers[475].srcLid 476
param **.servers[476].srcLid 477
param **.servers[477].srcLid 478
param **.servers[478].srcLid 479
param **.servers[479].srcLid 480
param **.servers[47].srcLid 48
param **.servers[480].srcLid 481
param **.servers[481].srcLid 482
param **.servers[482].srcLid 483
param **.servers[483].srcLid 484
param **.servers[484].srcLid 485
param **.servers[485].srcLid 486
param **.servers[486].srcLid 487
param **.servers[487].srcLid 488
param **.servers[488].srcLid 489
param **.servers[489].srcLid 490
param **.servers[48].srcLid 49
param **.servers[490].srcLid 491
param **.servers[491].srcLid 492
param **.servers[492].srcLid 493
param **.servers[493].srcLid 494
param **.servers[494].srcLid 495
param **.servers[495].srcLid 496
param **.servers[496].srcLid 497
param **.servers[497].srcLid 498
param **.servers[498].srcLid 499
param **.servers[499].srcLid 500
param **.servers[49].srcLid 50
param **.servers[4].**.on_throughput_obuf 1
param **.servers[4].app.dstLid 19
param **.servers[4].srcLid 5
param **.servers[500].srcLid 501
param **.servers[501].srcLid 502
param **.servers[502].srcLid 503
param **.servers[503].srcLid 504
param **.servers[504].srcLid 505
param **.servers[505].srcLid 506
param **.servers[506].srcLid 507
param **.servers[507].srcLid 508
param **.servers[508].srcLid 509
param **.servers[509].srcLid 510
param **.servers[50].srcLid 51
param **.servers[510].srcLid 511
param **.servers[511].srcLid 512
param **.servers[512].srcLid 513
param **.servers[513].srcLid 514
param **.servers[514].srcLid 515
param **.servers[515].srcLid 516
param **.servers[516].srcLid 517
param **.servers[517].srcLid 518
param **.servers[518].srcLid 519
param **.servers[519].srcLid 520
param **.servers[51].srcLid 52
param **.servers[520].srcLid 521
param **.servers[521].srcLid 522
param **.servers[522].srcLid 523
param **.servers[523].srcLid 524
param **.servers[524].srcLid 525
param **.servers[525].srcLid 526
param **.servers[526].srcLid 527
param **.servers[527].srcLid 528
param **.servers[528].srcLid 529
param **.servers[529].srcLid 530
param **.servers[52].srcLid 53
param **.servers[530].srcLid 531
param **.servers[531].srcLid 532
param **.servers[532].srcLid 533
param **.servers[533].srcLid 534
param **.servers[534].srcLid 535
param **.servers[535].srcLid 536
param **.servers[536].srcLid 537
param **.servers[537].srcLid 538
param **.servers[538].srcLid 539
param **.servers[539].srcLid 540
param **.servers[53].srcLid 54
param **.servers[540].srcLid 541
param **.servers[541].srcLid 542
param **.servers[542].srcLid 543
param **.servers[543].srcLid 544
param **.servers[544].srcLid 545
param **.servers[545].srcLid 546
param **.servers[546].srcLid 547
param **.servers[547].srcLid 548
param **.servers[548].srcLid 549
param **.servers[549].srcLid 550
param **.servers[54].srcLid 55
param **.servers[550].srcLid 551
param **.servers[551].srcLid 552
param **.servers[552].srcLid 553
param **.servers[553].srcLid 554
param **.servers[554].srcLid 555
param **.servers[555].srcLid 556
param **.servers[556].srcLid 557
param **.servers[557].srcLid 558
param **.servers[558].srcLid 559
param **.servers[559].srcLid 560
param **.servers[55].srcLid 56
param **.servers[560].srcLid 561
param **.servers[561].srcLid 562
param **.servers[562].srcLid 563
param **.servers[563].srcLid 564
param **.servers[564].srcLid 565
param **.servers[565].srcLid 566
param **.servers[566].srcLid 567
param **.servers[567].srcLid 568
param **.servers[568].srcLid 569
param **.servers[569].srcLid 570
param **.servers[56].srcLid 57
param **.servers[570].srcLid 571
param **.servers[571].srcLid 572
param **.servers[572].srcLid 573
param **.servers[573].srcLid 574
param **.servers[574].srcLid 575
param **.servers[575].srcLid 576
param **.servers[576].srcLid 577
param **.servers[577].srcLid 578
param **.servers[578].srcLid 579
param **.servers[579].srcLid 580
param **.servers[57].srcLid 58
param **.servers[580].srcLid 581
param **.servers[581].srcLid 582
param **.servers[582].srcLid 583
param **.servers[583].srcLid 584
param **.servers[584].srcLid 585
param **.servers[585].srcLid 586
param **.servers[586].srcLid 587
param **.servers[587].srcLid 588
param **.servers[588].srcLid 589
param **.servers[589].srcLid 590
param **.servers[58].srcLid 59
param **.servers[590].srcLid 591
param **.servers[591].srcLid 592
param **.servers[592].srcLid 593
param **.servers[593].srcLid 594
param **.servers[594].srcLid 595
param **.servers[595].srcLid 596
param **.servers[596].srcLid 597
param **.servers[597].srcLid 598
param **.servers[598].srcLid 599
param **.servers[599].srcLid 600
param **.servers[59].srcLid 60
param **.servers[5].srcLid 6
param **.servers[600].srcLid 601
param **.servers[601].srcLid 602
param **.servers[602].srcLid 603
param **.servers[603].srcLid 604
param **.servers[604].srcLid 605
param **.servers[605].srcLid 606
param **.servers[606].srcLid 607
param **.servers[607].srcLid 608
param **.servers[608].srcLid 609
param **.servers[609].srcLid 610
param **.servers[60].srcLid 61
param **.servers[610].srcLid 611
param **.servers[611].srcLid 612
param **.servers[612].srcLid 613
param **.servers[613].srcLid 614
param **.servers[614].srcLid 615
param **.servers[615].srcLid 616
param **.servers[616].srcLid 617
param **.servers[617].srcLid 618
param **.servers[618].srcLid 619
param **.servers[619].srcLid 620
param **.servers[61].srcLid 62
param **.servers[620].srcLid 621
param **.servers[621].srcLid 622
param **.servers[622].srcLid 623
param **.servers[623].srcLid 624
param **.servers[624].srcLid 625
param **.servers[625].srcLid 626
param **.servers[626].srcLid 627
param **.servers[627].srcLid 628
param **.servers[628].srcLid 629
param **.servers[629].srcLid 630
param **.servers[62].srcLid 63
param **.servers[630].srcLid 631
param **.servers[631].srcLid 632
param **.servers[632].srcLid 633
param **.servers[633].srcLid 634
param **.servers[634].srcLid 635
param **.servers[635].srcLid 636
param **.servers[636].srcLid 637
param **.servers[637].srcLid 638
param **.servers[638].srcLid 639
param **.servers[639].srcLid 640
param **.servers[63].srcLid 64
param **.servers[640].srcLid 641
param **.servers[641].srcLid 642
param **.servers[642].srcLid 643
param **.servers[643].srcLid 644
param **.servers[644].srcLid 645
param **.servers[645].srcLid 646
param **.servers[646].srcLid 647
param **.servers[647].srcLid 648
param **.servers[64].srcLid 65
param **.servers[65].srcLid 66
param **.servers[66].srcLid 67
param **.servers[67].srcLid 68
param **.servers[68].srcLid 69
param **.servers[69].srcLid 70
param **.servers[6].srcLid 7
param **.servers[70].srcLid 71
param **.servers[71].srcLid 72
param **.servers[72].srcLid 73
param **.servers[73].srcLid 74
param **.servers[74].srcLid 75
param **.servers[75].srcLid 76
param **.servers[76].srcLid 77
param **.servers[77].srcLid 78
param **.servers[78].srcLid 79
param **.servers[79].srcLid 80
param **.servers[7].srcLid 8
param **.servers[80].srcLid 81
param **.servers[81].srcLid 82
param **.servers[82].srcLid 83
param **.servers[83].srcLid 84
param **.servers[84].srcLid 85
param **.servers[85].srcLid 86
param **.servers[86].srcLid 87
param **.servers[87].srcLid 88
param **.servers[88].srcLid 89
param **.servers[89].srcLid 90
param **.servers[8].srcLid 9
param **.servers[90].srcLid 91
param **.servers[91].srcLid 92
param **.servers[92].srcLid 93
param **.servers[93].srcLid 94
param **.servers[94].srcLid 95
param **.servers[95].srcLid 96
param **.servers[96].srcLid 97
param **.servers[97].srcLid 98
param **.servers[98].srcLid 99
param **.servers[99].srcLid 100
param **.servers[9].srcLid 10
param **.sink.hiccupDelay 10000us
param **.sink.hiccupDuration 0.001us
param **.sink.repFirstPackets 0
param **.speed 10Gbps
param **.spine_switches[0]**.fdbIndex 36
param **.spine_switches[10]**.fdbIndex 46
param **.spine_switches[11]**.fdbIndex 47
param **.spine_switches[12]**.fdbIndex 48
param **.spine_switches[13]**.fdbIndex 49
param **.spine_switches[14]**.fdbIndex 50
param **.spine_switches[15]**.fdbIndex 51
param **.spine_switches[16]**.fdbIndex 52
param **.spine_switches[17]**.fdbIndex 53
param **.spine_switches[1]**.fdbIndex 37
param **.spine_switches[2]**.fdbIndex 38
param **.spine_switches[3]**.fdbIndex 39
param **.spine_switches[4]**.fdbIndex 40
param **.spine_switches[5]**.fdbIndex 41
param **.spine_switches[6]**.fdbIndex 42
param **.spine_switches[7]**.fdbIndex 43
param **.spine_switches[8]**.fdbIndex 44
param **.spine_switches[9]**.fdbIndex 45
param **.startStatCol 100us
param **.timeStep_us 25us
param **.vlarb.highVLArbEntries "\"0:1 1:20 2:40 3:80\""
param **.vlarb.lowVLArbEntries "\"0:1 1:20 2:40 3:80\""
param **.vlarb.markrate 1
param **.vlarb.useFCFSRQArb false
param **.vlarb.vlHighLimit 16
param **.vlarb.width 4
param **.width 4
param **H_**.obuf.size 5
param **H_**.vlarb.busWidth 16B
param **H_**.vlarb.coreFreq 1000MHz
param **SW**.vlarb.busWidth 24B
param **SW**.vlarb.coreFreq 1200MHz
param **ibuf.maxBeingSent 1
param **ibuf.totalBufferSize 1000
param **servers[*]**.ibuf.maxStatic* 32

scalar fattree_648_network.servers[18].sink 	"first receive packet for Rtt" 	1.325e-006
scalar fattree_648_network.servers[0].sink 	"first receive packet for Rtt" 	1.9553e-005
scalar fattree_648_network.servers[1].sink 	"first receive packet for Rtt" 	2.0065e-005
scalar fattree_648_network.servers[2].sink 	"first receive packet for Rtt" 	2.0577e-005
scalar fattree_648_network.servers[3].sink 	"first receive packet for Rtt" 	2.1091e-005
scalar fattree_648_network.servers[4].sink 	"first receive packet for Rtt" 	2.1603e-005
scalar fattree_648_network.servers[0].gen 	"generate BECN" 	0
scalar fattree_648_network.servers[0].gen 	"first packet for RTT" 	1e-009
scalar fattree_648_network.servers[0].sink 	"Time last packet consumed:" 	0.014992459859
statistic fattree_648_network.servers[0].sink 	"Waiting time statistics"
field count 831
field mean 8.1200274127557e-007
field stddev 7.0034880902326e-011
field sum 0.00067477427799999
field sqrsum 5.4791856754929e-010
field min 8.12e-007
field max 8.14e-007
statistic fattree_648_network.servers[0].sink 	"Packet Fabric Time"
field count 831
field mean 8.1200274127557e-007
field stddev 7.0034880902326e-011
field sum 0.00067477427799999
field sqrsum 5.4791856754929e-010
field min 8.12e-007
field max 8.14e-007
bin	-INF	0
bin	0	0
bin	4.06e-008	0
bin	8.12e-008	0
bin	1.218e-007	0
bin	1.624e-007	0
bin	2.03e-007	0
bin	2.436e-007	0
bin	2.842e-007	0
bin	3.248e-007	0
bin	3.654e-007	0
bin	4.06e-007	0
bin	4.466e-007	0
bin	4.872e-007	0
bin	5.278e-007	0
bin	5.684e-007	0
bin	6.09e-007	0
bin	6.496e-007	0
bin	6.902e-007	0
bin	7.308e-007	0
bin	7.714e-007	0
bin	8.12e-007	831
bin	8.526e-007	0
bin	8.932e-007	0
bin	9.338e-007	0
bin	9.744e-007	0
bin	1.015e-006	0
bin	1.0556e-006	0
bin	1.0962e-006	0
bin	1.1368e-006	0
bin	1.1774e-006	0
bin	1.218e-006	0
statistic fattree_648_network.servers[0].sink 	Msg-Network-Latency
field count 0
field mean nan
field stddev nan
field sum 0
field sqrsum 0
field min nan
field max nan
bin	-INF	0
bin	-0.5	0
bin	-0.46666666666667	0
bin	-0.43333333333333	0
bin	-0.4	0
bin	-0.36666666666667	0
bin	-0.33333333333333	0
bin	-0.3	0
bin	-0.26666666666667	0
bin	-0.23333333333333	0
bin	-0.2	0
bin	-0.16666666666667	0
bin	-0.13333333333333	0
bin	-0.1	0
bin	-0.066666666666667	0
bin	-0.033333333333333	0
bin	0	0
bin	0.033333333333333	0
bin	0.066666666666667	0
bin	0.1	0
bin	0.13333333333333	0
bin	0.16666666666667	0
bin	0.2	0
bin	0.23333333333333	0
bin	0.26666666666667	0
bin	0.3	0
bin	0.33333333333333	0
bin	0.36666666666667	0
bin	0.4	0
bin	0.43333333333333	0
bin	0.46666666666667	0
bin	0.5	0
statistic fattree_648_network.servers[0].sink 	Msg-First2First-Network-Latency
field count 0
field mean nan
field stddev nan
field sum 0
field sqrsum 0
field min nan
field max nan
bin	-INF	0
bin	-0.5	0
bin	-0.46666666666667	0
bin	-0.43333333333333	0
bin	-0.4	0
bin	-0.36666666666667	0
bin	-0.33333333333333	0
bin	-0.3	0
bin	-0.26666666666667	0
bin	-0.23333333333333	0
bin	-0.2	0
bin	-0.16666666666667	0
bin	-0.13333333333333	0
bin	-0.1	0
bin	-0.066666666666667	0
bin	-0.033333333333333	0
bin	0	0
bin	0.033333333333333	0
bin	0.066666666666667	0
bin	0.1	0
bin	0.13333333333333	0
bin	0.16666666666667	0
bin	0.2	0
bin	0.23333333333333	0
bin	0.26666666666667	0
bin	0.3	0
bin	0.33333333333333	0
bin	0.36666666666667	0
bin	0.4	0
bin	0.43333333333333	0
bin	0.46666666666667	0
bin	0.5	0
statistic fattree_648_network.servers[0].sink 	Enough-Pkts-Network-Latency
field count 0
field mean nan
field stddev nan
field sum 0
field sqrsum 0
field min nan
field max nan
bin	-INF	0
bin	-0.5	0
bin	-0.46666666666667	0
bin	-0.43333333333333	0
bin	-0.4	0
bin	-0.36666666666667	0
bin	-0.33333333333333	0
bin	-0.3	0
bin	-0.26666666666667	0
bin	-0.23333333333333	0
bin	-0.2	0
bin	-0.16666666666667	0
bin	-0.13333333333333	0
bin	-0.1	0
bin	-0.066666666666667	0
bin	-0.033333333333333	0
bin	0	0
bin	0.033333333333333	0
bin	0.066666666666667	0
bin	0.1	0
bin	0.13333333333333	0
bin	0.16666666666667	0
bin	0.2	0
bin	0.23333333333333	0
bin	0.26666666666667	0
bin	0.3	0
bin	0.33333333333333	0
bin	0.36666666666667	0
bin	0.4	0
bin	0.43333333333333	0
bin	0.46666666666667	0
bin	0.5	0
statistic fattree_648_network.servers[0].sink 	Last-to-Enough-Pkt-Arrival
field count 0
field mean nan
field stddev nan
field sum 0
field sqrsum 0
field min nan
field max nan
scalar fattree_648_network.servers[0].sink 	Sink-BW-MBps 	0
scalar fattree_648_network.servers[0].sink 	VL-0-total-flits 	836
statistic fattree_648_network.servers[0].sink 	OOO-Window-Pkts
field count 0
field mean nan
field stddev nan
field sum 0
field sqrsum 0
field min nan
field max nan
scalar fattree_648_network.servers[0].sink 	OO-IO-Packets-Ratio 	nan
scalar fattree_648_network.servers[0].sink 	Num-SRCs 	0
scalar fattree_648_network.servers[0].sink 	Received-BECN 	836
statistic fattree_648_network.servers[0].obuf 	"Flits Sources"
field count 5857
field mean 1
field stddev 0
field sum 5857
field sqrsum 5857
field min 1
field max 1
scalar fattree_648_network.servers[0].ibuf 	marknum 	0
scalar fattree_648_network.servers[0].ibuf 	Received-BECN-ibuf 	836
scalar fattree_648_network.servers[0].ibuf 	Received-FECN-ibuf 	0
scalar fattree_648_network.servers[1].gen 	"generate BECN" 	0
scalar fattree_648_network.servers[1].gen 	"first packet for RTT" 	1e-009
scalar fattree_648_network.servers[1].sink 	"Time last packet consumed:" 	0.014992971859
statistic fattree_648_network.servers[1].sink 	"Waiting time statistics"
field count 831
field mean 8.122496413959e-007
field stddev 6.6056386804893e-010
field sum 0.000674979452
field sqrsum 5.4825218000264e-010
field min 8.12e-007
field max 8.14e-007
statistic fattree_648_network.servers[1].sink 	"Packet Fabric Time"
field count 831
field mean 8.122496413959e-007
field stddev 6.6056386804893e-010
field sum 0.000674979452
field sqrsum 5.4825218000264e-010
field min 8.12e-007
field max 8.14e-007
bin	-INF	0
bin	0	0
bin	4.07e-008	0
bin	8.14e-008	0
bin	1.221e-007	0
bin	1.628e-007	0
bin	2.035e-007	0
bin	2.442e-007	0
bin	2.849e-007	0
bin	3.256e-007	0
bin	3.663e-007	0
bin	4.07e-007	0
bin	4.477e-007	0
bin	4.884e-007	0
bin	5.291e-007	0
bin	5.698e-007	0
bin	6.105e-007	0
bin	6.512e-007	0
bin	6.919e-007	0
bin	7.326e-007	0
bin	7.733e-007	728
bin	8.14e-007	103
bin	8.547e-007	0
bin	8.954e-007	0
bin	9.361e-007	0
bin	9.768e-007	0
bin	1.0175e-006	0
bin	1.0582e-006	0
bin	1.0989e-006	0
bin	1.1396e-006	0
bin	1.1803e-006	0
bin	1.221e-006	0
statistic fattree_648_network.servers[1].sink 	Msg-Network-Latency
field count 0
field mean nan
field stddev nan
field sum 0
field sqrsum 0
field min nan
field max nan
bin	-INF	0
bin	-0.5	0
bin	-0.46666666666667	0
bin	-0.43333333333333	0
bin	-0.4	0
bin	-0.36666666666667	0
bin	-0.33333333333333	0
bin	-0.3	0
bin	-0.26666666666667	0
bin	-0.23333333333333	0
bin	-0.2	0
bin	-0.16666666666667	0
bin	-0.13333333333333	0
bin	-0.1	0
bin	-0.066666666666667	0
bin	-0.033333333333333	0
bin	0	0
bin	0.033333333333333	0
bin	0.066666666666667	0
bin	0.1	0
bin	0.13333333333333	0
bin	0.16666666666667	0
bin	0.2	0
bin	0.23333333333333	0
bin	0.26666666666667	0
bin	0.3	0
bin	0.33333333333333	0
bin	0.36666666666667	0
bin	0.4	0
bin	0.43333333333333	0
bin	0.46666666666667	0
bin	0.5	0
statistic fattree_648_network.servers[1].sink 	Msg-First2First-Network-Latency
field count 0
field mean nan
field stddev nan
field sum 0
field sqrsum 0
field min nan
field max nan
bin	-INF	0
bin	-0.5	0
bin	-0.46666666666667	0
bin	-0.43333333333333	0
bin	-0.4	0
bin	-0.36666666666667	0
bin	-0.33333333333333	0
bin	-0.3	0
bin	-0.26666666666667	0
bin	-0.23333333333333	0
bin	-0.2	0
bin	-0.16666666666667	0
bin	-0.13333333333333	0
bin	-0.1	0
bin	-0.066666666666667	0
bin	-0.033333333333333	0
bin	0	0
bin	0.033333333333333	0
bin	0.066666666666667	0
bin	0.1	0
bin	0.13333333333333	0
bin	0.16666666666667	0
bin	0.2	0
bin	0.23333333333333	0
bin	0.26666666666667	0
bin	0.3	0
bin	0.33333333333333	0
bin	0.36666666666667	0
bin	0.4	0
bin	0.43333333333333	0
bin	0.46666666666667	0
bin	0.5	0
statistic fattree_648_network.servers[1].sink 	Enough-Pkts-Network-Latency
field count 0
field mean nan
field stddev nan
field sum 0
field sqrsum 0
field min nan
field max nan
bin	-INF	0
bin	-0.5	0
bin	-0.46666666666667	0
bin	-0.43333333333333	0
bin	-0.4	0
bin	-0.36666666666667	0
bin	-0.33333333333333	0
bin	-0.3	0
bin	-0.26666666666667	0
bin	-0.23333333333333	0
bin	-0.2	0
bin	-0.16666666666667	0
bin	-0.13333333333333	0
bin	-0.1	0
bin	-0.066666666666667	0
bin	-0.033333333333333	0
bin	0	0
bin	0.033333333333333	0
bin	0.066666666666667	0
bin	0.1	0
bin	0.13333333333333	0
bin	0.16666666666667	0
bin	0.2	0
bin	0.23333333333333	0
bin	0.26666666666667	0
bin	0.3	0
bin	0.33333333333333	0
bin	0.36666666666667	0
bin	0.4	0
bin	0.43333333333333	0
bin	0.46666666666667	0
bin	0.5	0
statistic fattree_648_network.servers[1].sink 	Last-to-Enough-Pkt-Arrival
field count 0
field mean nan
field stddev nan
field sum 0
field sqrsum 0
field min nan
field max nan
scalar fattree_648_network.servers[1].sink 	Sink-BW-MBps 	0
scalar fattree_648_network.servers[1].sink 	VL-0-total-flits 	836
statistic fattree_648_network.servers[1].sink 	OOO-Window-Pkts
field count 0
field mean nan
field stddev nan
field sum 0
field sqrsum 0
field min nan
field max nan
scalar fattree_648_network.servers[1].sink 	OO-IO-Packets-Ratio 	nan
scalar fattree_648_network.servers[1].sink 	Num-SRCs 	0
scalar fattree_648_network.servers[1].sink 	Received-BECN 	836
statistic fattree_648_network.servers[1].obuf 	"Flits Sources"
field count 5857
field mean 2
field stddev 0
field sum 11714
field sqrsum 23428
field min 2
field max 2
scalar fattree_648_network.servers[1].ibuf 	marknum 	0
scalar fattree_648_network.servers[1].ibuf 	Received-BECN-ibuf 	836
scalar fattree_648_network.servers[1].ibuf 	Received-FECN-ibuf 	0
scalar fattree_648_network.servers[2].gen 	"generate BECN" 	0
scalar fattree_648_network.servers[2].gen 	"first packet for RTT" 	1e-009
scalar fattree_648_network.servers[2].sink 	"Time last packet consumed:" 	0.014993483859
statistic fattree_648_network.servers[2].sink 	"Waiting time statistics"
field count 831
field mean 8.1223426594464e-007
field stddev 6.4270691979905e-010
field sum 0.000674966675
field sqrsum 5.4823140465563e-010
field min 8.12e-007
field max 8.14e-007
statistic fattree_648_network.servers[2].sink 	"Packet Fabric Time"
field count 831
field mean 8.1223426594464e-007
field stddev 6.4270691979905e-010
field sum 0.000674966675
field sqrsum 5.4823140465563e-010
field min 8.12e-007
field max 8.14e-007
bin	-INF	0
bin	0	0
bin	4.07e-008	0
bin	8.14e-008	0
bin	1.221e-007	0
bin	1.628e-007	0
bin	2.035e-007	0
bin	2.442e-007	0
bin	2.849e-007	0
bin	3.256e-007	0
bin	3.663e-007	0
bin	4.07e-007	0
bin	4.477e-007	0
bin	4.884e-007	0
bin	5.291e-007	0
bin	5.698e-007	0
bin	6.105e-007	0
bin	6.512e-007	0
bin	6.919e-007	0
bin	7.326e-007	0
bin	7.733e-007	734
bin	8.14e-007	97
bin	8.547e-007	0
bin	8.954e-007	0
bin	9.361e-007	0
bin	9.768e-007	0
bin	1.0175e-006	0
bin	1.0582e-006	0
bin	1.0989e-006	0
bin	1.1396e-006	0
bin	1.1803e-006	0
bin	1.221e-006	0
statistic fattree_648_network.servers[2].sink 	Msg-Network-Latency
field count 0
field mean nan
field stddev nan
field sum 0
field sqrsum 0
field min nan
field max nan
bin	-INF	0
bin	-0.5	0
bin	-0.46666666666667	0
bin	-0.43333333333333	0
bin	-0.4	0
bin	-0.36666666666667	0
bin	-0.33333333333333	0
bin	-0.3	0
bin	-0.26666666666667	0
bin	-0.23333333333333	0
bin	-0.2	0
bin	-0.16666666666667	0
bin	-0.13333333333333	0
bin	-0.1	0
bin	-0.066666666666667	0
bin	-0.033333333333333	0
bin	0	0
bin	0.033333333333333	0
bin	0.066666666666667	0
bin	0.1	0
bin	0.13333333333333	0
bin	0.16666666666667	0
bin	0.2	0
bin	0.23333333333333	0
bin	0.26666666666667	0
bin	0.3	0
bin	0.33333333333333	0
bin	0.36666666666667	0
bin	0.4	0
bin	0.43333333333333	0
bin	0.46666666666667	0
bin	0.5	0
statistic fattree_648_network.servers[2].sink 	Msg-First2First-Network-Latency
field count 0
field mean nan
field stddev nan
field sum 0
field sqrsum 0
field min nan
field max nan
bin	-INF	0
bin	-0.5	0
bin	-0.46666666666667	0
bin	-0.43333333333333	0
bin	-0.4	0
bin	-0.36666666666667	0
bin	-0.33333333333333	0
bin	-0.3	0
bin	-0.26666666666667	0
bin	-0.23333333333333	0
bin	-0.2	0
bin	-0.16666666666667	0
bin	-0.13333333333333	0
bin	-0.1	0
bin	-0.066666666666667	0
bin	-0.033333333333333	0
bin	0	0
bin	0.033333333333333	0
bin	0.066666666666667	0
bin	0.1	0
bin	0.13333333333333	0
bin	0.16666666666667	0
bin	0.2	0
bin	0.23333333333333	0
bin	0.26666666666667	0
bin	0.3	0
bin	0.33333333333333	0
bin	0.36666666666667	0
bin	0.4	0
bin	0.43333333333333	0
bin	0.46666666666667	0
bin	0.5	0
statistic fattree_648_network.servers[2].sink 	Enough-Pkts-Network-Latency
field count 0
field mean nan
field stddev nan
field sum 0
field sqrsum 0
field min nan
field max nan
bin	-INF	0
bin	-0.5	0
bin	-0.46666666666667	0
bin	-0.43333333333333	0
bin	-0.4	0
bin	-0.36666666666667	0
bin	-0.33333333333333	0
bin	-0.3	0
bin	-0.26666666666667	0
bin	-0.23333333333333	0
bin	-0.2	0
bin	-0.16666666666667	0
bin	-0.13333333333333	0
bin	-0.1	0
bin	-0.066666666666667	0
bin	-0.033333333333333	0
bin	0	0
bin	0.033333333333333	0
bin	0.066666666666667	0
bin	0.1	0
bin	0.13333333333333	0
bin	0.16666666666667	0
bin	0.2	0
bin	0.23333333333333	0
bin	0.26666666666667	0
bin	0.3	0
bin	0.33333333333333	0
bin	0.36666666666667	0
bin	0.4	0
bin	0.43333333333333	0
bin	0.46666666666667	0
bin	0.5	0
statistic fattree_648_network.servers[2].sink 	Last-to-Enough-Pkt-Arrival
field count 0
field mean nan
field stddev nan
field sum 0
field sqrsum 0
field min nan
field max nan
scalar fattree_648_network.servers[2].sink 	Sink-BW-MBps 	0
scalar fattree_648_network.servers[2].sink 	VL-0-total-flits 	836
statistic fattree_648_network.servers[2].sink 	OOO-Window-Pkts
field count 0
field mean nan
field stddev nan
field sum 0
field sqrsum 0
field min nan
field max nan
scalar fattree_648_network.servers[2].sink 	OO-IO-Packets-Ratio 	nan
scalar fattree_648_network.servers[2].sink 	Num-SRCs 	0
scalar fattree_648_network.servers[2].sink 	Received-BECN 	836
statistic fattree_648_network.servers[2].obuf 	"Flits Sources"
field count 5857
field mean 3
field stddev 0
field sum 17571
field sqrsum 52713
field min 3
field max 3
scalar fattree_648_network.servers[2].ibuf 	marknum 	0
scalar fattree_648_network.servers[2].ibuf 	Received-BECN-ibuf 	836
scalar fattree_648_network.servers[2].ibuf 	Received-FECN-ibuf 	0
scalar fattree_648_network.servers[3].gen 	"generate BECN" 	0
scalar fattree_648_network.servers[3].gen 	"first packet for RTT" 	1e-009
scalar fattree_648_network.servers[3].sink 	"Time last packet consumed:" 	0.014993995859
statistic fattree_648_network.servers[3].sink 	"Waiting time statistics"
field count 831
field mean 8.1224767509025e-007
field stddev 6.5840645817253e-010
field sum 0.000674977818
field sqrsum 5.4824952321221e-010
field min 8.12e-007
field max 8.14e-007
statistic fattree_648_network.servers[3].sink 	"Packet Fabric Time"
field count 831
field mean 8.1224767509025e-007
field stddev 6.5840645817253e-010
field sum 0.000674977818
field sqrsum 5.4824952321221e-010
field min 8.12e-007
field max 8.14e-007
bin	-INF	0
bin	0	0
bin	4.07e-008	0
bin	8.14e-008	0
bin	1.221e-007	0
bin	1.628e-007	0
bin	2.035e-007	0
bin	2.442e-007	0
bin	2.849e-007	0
bin	3.256e-007	0
bin	3.663e-007	0
bin	4.07e-007	0
bin	4.477e-007	0
bin	4.884e-007	0
bin	5.291e-007	0
bin	5.698e-007	0
bin	6.105e-007	0
bin	6.512e-007	0
bin	6.919e-007	0
bin	7.326e-007	0
bin	7.733e-007	731
bin	8.14e-007	100
bin	8.547e-007	0
bin	8.954e-007	0
bin	9.361e-007	0
bin	9.768e-007	0
bin	1.0175e-006	0
bin	1.0582e-006	0
bin	1.0989e-006	0
bin	1.1396e-006	0
bin	1.1803e-006	0
bin	1.221e-006	0
statistic fattree_648_network.servers[3].sink 	Msg-Network-Latency
field count 0
field mean nan
field stddev nan
field sum 0
field sqrsum 0
field min nan
field max nan
bin	-INF	0
bin	-0.5	0
bin	-0.46666666666667	0
bin	-0.43333333333333	0
bin	-0.4	0
bin	-0.36666666666667	0
bin	-0.33333333333333	0
bin	-0.3	0
bin	-0.26666666666667	0
bin	-0.23333333333333	0
bin	-0.2	0
bin	-0.16666666666667	0
bin	-0.13333333333333	0
bin	-0.1	0
bin	-0.066666666666667	0
bin	-0.033333333333333	0
bin	0	0
bin	0.033333333333333	0
bin	0.066666666666667	0
bin	0.1	0
bin	0.13333333333333	0
bin	0.16666666666667	0
bin	0.2	0
bin	0.23333333333333	0
bin	0.26666666666667	0
bin	0.3	0
bin	0.33333333333333	0
bin	0.36666666666667	0
bin	0.4	0
bin	0.43333333333333	0
bin	0.46666666666667	0
bin	0.5	0
statistic fattree_648_network.servers[3].sink 	Msg-First2First-Network-Latency
field count 0
field mean nan
field stddev nan
field sum 0
field sqrsum 0
field min nan
field max nan
bin	-INF	0
bin	-0.5	0
bin	-0.46666666666667	0
bin	-0.43333333333333	0
bin	-0.4	0
bin	-0.36666666666667	0
bin	-0.33333333333333	0
bin	-0.3	0
bin	-0.26666666666667	0
bin	-0.23333333333333	0
bin	-0.2	0
bin	-0.16666666666667	0
bin	-0.13333333333333	0
bin	-0.1	0
bin	-0.066666666666667	0
bin	-0.033333333333333	0
bin	0	0
bin	0.033333333333333	0
bin	0.066666666666667	0
bin	0.1	0
bin	0.13333333333333	0
bin	0.16666666666667	0
bin	0.2	0
bin	0.23333333333333	0
bin	0.26666666666667	0
bin	0.3	0
bin	0.33333333333333	0
bin	0.36666666666667	0
bin	0.4	0
bin	0.43333333333333	0
bin	0.46666666666667	0
bin	0.5	0
statistic fattree_648_network.servers[3].sink 	Enough-Pkts-Network-Latency
field count 0
field mean nan
field stddev nan
field sum 0
field sqrsum 0
field min nan
field max nan
bin	-INF	0
bin	-0.5	0
bin	-0.46666666666667	0
bin	-0.43333333333333	0
bin	-0.4	0
bin	-0.36666666666667	0
bin	-0.33333333333333	0
bin	-0.3	0
bin	-0.26666666666667	0
bin	-0.23333333333333	0
bin	-0.2	0
bin	-0.16666666666667	0
bin	-0.13333333333333	0
bin	-0.1	0
bin	-0.066666666666667	0
bin	-0.033333333333333	0
bin	0	0
bin	0.033333333333333	0
bin	0.066666666666667	0
bin	0.1	0
bin	0.13333333333333	0
bin	0.16666666666667	0
bin	0.2	0
bin	0.23333333333333	0
bin	0.26666666666667	0
bin	0.3	0
bin	0.33333333333333	0
bin	0.36666666666667	0
bin	0.4	0
bin	0.43333333333333	0
bin	0.46666666666667	0
bin	0.5	0
statistic fattree_648_network.servers[3].sink 	Last-to-Enough-Pkt-Arrival
field count 0
field mean nan
field stddev nan
field sum 0
field sqrsum 0
field min nan
field max nan
scalar fattree_648_network.servers[3].sink 	Sink-BW-MBps 	0
scalar fattree_648_network.servers[3].sink 	VL-0-total-flits 	836
statistic fattree_648_network.servers[3].sink 	OOO-Window-Pkts
field count 0
field mean nan
field stddev nan
field sum 0
field sqrsum 0
field min nan
field max nan
scalar fattree_648_network.servers[3].sink 	OO-IO-Packets-Ratio 	nan
scalar fattree_648_network.servers[3].sink 	Num-SRCs 	0
scalar fattree_648_network.servers[3].sink 	Received-BECN 	836
statistic fattree_648_network.servers[3].obuf 	"Flits Sources"
field count 5856
field mean 4
field stddev 0
field sum 23424
field sqrsum 93696
field min 4
field max 4
scalar fattree_648_network.servers[3].ibuf 	marknum 	0
scalar fattree_648_network.servers[3].ibuf 	Received-BECN-ibuf 	836
scalar fattree_648_network.servers[3].ibuf 	Received-FECN-ibuf 	0
scalar fattree_648_network.servers[4].gen 	"generate BECN" 	0
scalar fattree_648_network.servers[4].gen 	"first packet for RTT" 	1e-009
scalar fattree_648_network.servers[4].sink 	"Time last packet consumed:" 	0.014994507859
statistic fattree_648_network.servers[4].sink 	"Waiting time statistics"
field count 831
field mean 8.1224562695547e-007
field stddev 6.5664084462467e-010
field sum 0.000674976116
field sqrsum 5.4824675639746e-010
field min 8.12e-007
field max 8.14e-007
statistic fattree_648_network.servers[4].sink 	"Packet Fabric Time"
field count 831
field mean 8.1224562695547e-007
field stddev 6.5664084462467e-010
field sum 0.000674976116
field sqrsum 5.4824675639746e-010
field min 8.12e-007
field max 8.14e-007
bin	-INF	0
bin	0	0
bin	4.07e-008	0
bin	8.14e-008	0
bin	1.221e-007	0
bin	1.628e-007	0
bin	2.035e-007	0
bin	2.442e-007	0
bin	2.849e-007	0
bin	3.256e-007	0
bin	3.663e-007	0
bin	4.07e-007	0
bin	4.477e-007	0
bin	4.884e-007	0
bin	5.291e-007	0
bin	5.698e-007	0
bin	6.105e-007	0
bin	6.512e-007	0
bin	6.919e-007	0
bin	7.326e-007	0
bin	7.733e-007	729
bin	8.14e-007	102
bin	8.547e-007	0
bin	8.954e-007	0
bin	9.361e-007	0
bin	9.768e-007	0
bin	1.0175e-006	0
bin	1.0582e-006	0
bin	1.0989e-006	0
bin	1.1396e-006	0
bin	1.1803e-006	0
bin	1.221e-006	0
statistic fattree_648_network.servers[4].sink 	Msg-Network-Latency
field count 0
field mean nan
field stddev nan
field sum 0
field sqrsum 0
field min nan
field max nan
bin	-INF	0
bin	-0.5	0
bin	-0.46666666666667	0
bin	-0.43333333333333	0
bin	-0.4	0
bin	-0.36666666666667	0
bin	-0.33333333333333	0
bin	-0.3	0
bin	-0.26666666666667	0
bin	-0.23333333333333	0
bin	-0.2	0
bin	-0.16666666666667	0
bin	-0.13333333333333	0
bin	-0.1	0
bin	-0.066666666666667	0
bin	-0.033333333333333	0
bin	0	0
bin	0.033333333333333	0
bin	0.066666666666667	0
bin	0.1	0
bin	0.13333333333333	0
bin	0.16666666666667	0
bin	0.2	0
bin	0.23333333333333	0
bin	0.26666666666667	0
bin	0.3	0
bin	0.33333333333333	0
bin	0.36666666666667	0
bin	0.4	0
bin	0.43333333333333	0
bin	0.46666666666667	0
bin	0.5	0
statistic fattree_648_network.servers[4].sink 	Msg-First2First-Network-Latency
field count 0
field mean nan
field stddev nan
field sum 0
field sqrsum 0
field min nan
field max nan
bin	-INF	0
bin	-0.5	0
bin	-0.46666666666667	0
bin	-0.43333333333333	0
bin	-0.4	0
bin	-0.36666666666667	0
bin	-0.33333333333333	0
bin	-0.3	0
bin	-0.26666666666667	0
bin	-0.23333333333333	0
bin	-0.2	0
bin	-0.16666666666667	0
bin	-0.13333333333333	0
bin	-0.1	0
bin	-0.066666666666667	0
bin	-0.033333333333333	0
bin	0	0
bin	0.033333333333333	0
bin	0.066666666666667	0
bin	0.1	0
bin	0.13333333333333	0
bin	0.16666666666667	0
bin	0.2	0
bin	0.23333333333333	0
bin	0.26666666666667	0
bin	0.3	0
bin	0.33333333333333	0
bin	0.36666666666667	0
bin	0.4	0
bin	0.43333333333333	0
bin	0.46666666666667	0
bin	0.5	0
statistic fattree_648_network.servers[4].sink 	Enough-Pkts-Network-Latency
field count 0
field mean nan
field stddev nan
field sum 0
field sqrsum 0
field min nan
field max nan
bin	-INF	0
bin	-0.5	0
bin	-0.46666666666667	0
bin	-0.43333333333333	0
bin	-0.4	0
bin	-0.36666666666667	0
bin	-0.33333333333333	0
bin	-0.3	0
bin	-0.26666666666667	0
bin	-0.23333333333333	0
bin	-0.2	0
bin	-0.16666666666667	0
bin	-0.13333333333333	0
bin	-0.1	0
bin	-0.066666666666667	0
bin	-0.033333333333333	0
bin	0	0
bin	0.033333333333333	0
bin	0.066666666666667	0
bin	0.1	0
bin	0.13333333333333	0
bin	0.16666666666667	0
bin	0.2	0
bin	0.23333333333333	0
bin	0.26666666666667	0
bin	0.3	0
bin	0.33333333333333	0
bin	0.36666666666667	0
bin	0.4	0
bin	0.43333333333333	0
bin	0.46666666666667	0
bin	0.5	0
statistic fattree_648_network.servers[4].sink 	Last-to-Enough-Pkt-Arrival
field count 0
field mean nan
field stddev nan
field sum 0
field sqrsum 0
field min nan
field max nan
scalar fattree_648_network.servers[4].sink 	Sink-BW-MBps 	0
scalar fattree_648_network.servers[4].sink 	VL-0-total-flits 	836
statistic fattree_648_network.servers[4].sink 	OOO-Window-Pkts
field count 0
field mean nan
field stddev nan
field sum 0
field sqrsum 0
field min nan
field max nan
scalar fattree_648_network.servers[4].sink 	OO-IO-Packets-Ratio 	nan
scalar fattree_648_network.servers[4].sink 	Num-SRCs 	0
scalar fattree_648_network.servers[4].sink 	Received-BECN 	836
statistic fattree_648_network.servers[4].obuf 	"Flits Sources"
field count 5856
field mean 5
field stddev 0
field sum 29280
field sqrsum 146400
field min 5
field max 5
scalar fattree_648_network.servers[4].ibuf 	marknum 	0
scalar fattree_648_network.servers[4].ibuf 	Received-BECN-ibuf 	836
scalar fattree_648_network.servers[4].ibuf 	Received-FECN-ibuf 	0
scalar fattree_648_network.servers[5].gen 	"generate BECN" 	0
scalar fattree_648_network.servers[5].gen 	"first packet for RTT" 	0
scalar fattree_648_network.servers[5].sink 	"Time last packet consumed:" 	0
statistic fattree_648_network.servers[5].sink 	"Waiting time statistics"
field count 0
field mean nan
field stddev nan
field sum 0
field sqrsum 0
field min nan
field max nan
statistic fattree_648_network.servers[5].sink 	"Packet Fabric Time"
field count 0
field mean nan
field stddev nan
field sum 0
field sqrsum 0
field min nan
field max nan
bin	-INF	0
bin	0	0
bin	0.033333333333333	0
bin	0.066666666666667	0
bin	0.1	0
bin	0.13333333333333	0
bin	0.16666666666667	0
bin	0.2	0
bin	0.23333333333333	0
bin	0.26666666666667	0
bin	0.3	0
bin	0.33333333333333	0
bin	0.36666666666667	0
bin	0.4	0
bin	0.43333333333333	0
bin	0.46666666666667	0
bin	0.5	0
bin	0.53333333333333	0
bin	0.56666666666667	0
bin	0.6	0
bin	0.63333333333333	0
bin	0.66666666666667	0
bin	0.7	0
bin	0.73333333333333	0
bin	0.76666666666667	0
bin	0.8	0
bin	0.83333333333333	0
bin	0.86666666666667	0
bin	0.9	0
bin	0.93333333333333	0
bin	0.96666666666667	0
bin	1	0
statistic fattree_648_network.servers[5].sink 	Msg-Network-Latency
field count 0
field mean nan
field stddev nan
field sum 0
field sqrsum 0
field min nan
field max nan
bin	-INF	0
bin	-0.5	0
bin	-0.46666666666667	0
bin	-0.43333333333333	0
bin	-0.4	0
bin	-0.36666666666667	0
bin	-0.33333333333333	0
bin	-0.3	0
bin	-0.26666666666667	0
bin	-0.23333333333333	0
bin	-0.2	0
bin	-0.16666666666667	0
bin	-0.13333333333333	0
bin	-0.1	0
bin	-0.066666666666667	0
bin	-0.033333333333333	0
bin	0	0
bin	0.033333333333333	0
bin	0.066666666666667	0
bin	0.1	0
bin	0.13333333333333	0
bin	0.16666666666667	0
bin	0.2	0
bin	0.23333333333333	0
bin	0.26666666666667	0
bin	0.3	0
bin	0.33333333333333	0
bin	0.36666666666667	0
bin	0.4	0
bin	0.43333333333333	0
bin	0.46666666666667	0
bin	0.5	0
statistic fattree_648_network.servers[5].sink 	Msg-First2First-Network-Latency
field count 0
field mean nan
field stddev nan
field sum 0
field sqrsum 0
field min nan
field max nan
bin	-INF	0
bin	-0.5	0
bin	-0.46666666666667	0
bin	-0.43333333333333	0
bin	-0.4	0
bin	-0.36666666666667	0
bin	-0.33333333333333	0
bin	-0.3	0
bin	-0.26666666666667	0
bin	-0.23333333333333	0
bin	-0.2	0
bin	-0.16666666666667	0
bin	-0.13333333333333	0
bin	-0.1	0
bin	-0.066666666666667	0
bin	-0.033333333333333	0
bin	0	0
bin	0.033333333333333	0
bin	0.066666666666667	0
bin	0.1	0
bin	0.13333333333333	0
bin	0.16666666666667	0
bin	0.2	0
bin	0.23333333333333	0
bin	0.26666666666667	0
bin	0.3	0
bin	0.33333333333333	0
bin	0.36666666666667	0
bin	0.4	0
bin	0.43333333333333	0
bin	0.46666666666667	0
bin	0.5	0
statistic fattree_648_network.servers[5].sink 	Enough-Pkts-Network-Latency
field count 0
field mean nan
field stddev nan
field sum 0
field sqrsum 0
field min nan
field max nan
bin	-INF	0
bin	-0.5	0
bin	-0.46666666666667	0
bin	-0.43333333333333	0
bin	-0.4	0
bin	-0.36666666666667	0
bin	-0.33333333333333	0
bin	-0.3	0
bin	-0.26666666666667	0
bin	-0.23333333333333	0
bin	-0.2	0
bin	-0.16666666666667	0
bin	-0.13333333333333	0
bin	-0.1	0
bin	-0.066666666666667	0
bin	-0.033333333333333	0
bin	0	0
bin	0.033333333333333	0
bin	0.066666666666667	0
bin	0.1	0
bin	0.13333333333333	0
bin	0.16666666666667	0
bin	0.2	0
bin	0.23333333333333	0
bin	0.26666666666667	0
bin	0.3	0
bin	0.33333333333333	0
bin	0.36666666666667	0
bin	0.4	0
bin	0.43333333333333	0
bin	0.46666666666667	0
bin	0.5	0
statistic fattree_648_network.servers[5].sink 	Last-to-Enough-Pkt-Arrival
field count 0
field mean nan
field stddev nan
field sum 0
field sqrsum 0
field min nan
field max nan
scalar fattree_648_network.servers[5].sink 	Sink-BW-MBps 	0
scalar fattree_648_network.servers[5].sink 	VL-0-total-flits 	0
statistic fattree_648_network.servers[5].sink 	OOO-Window-Pkts
field count 0
field mean nan
field stddev nan
field sum 0
field sqrsum 0
field min nan
field max nan
scalar fattree_648_network.servers[5].sink 	OO-IO-Packets-Ratio 	nan
scalar fattree_648_network.servers[5].sink 	Num-SRCs 	0
scalar fattree_648_network.servers[5].sink 	Received-BECN 	0
statistic fattree_648_network.servers[5].obuf 	"Flits Sources"
field count 0
field mean nan
field stddev nan
field sum 0
field sqrsum 0
field min nan
field max nan
scalar fattree_648_network.servers[5].ibuf 	marknum 	0
scalar fattree_648_network.servers[5].ibuf 	Received-BECN-ibuf 	0
scalar fattree_648_network.servers[5].ibuf 	Received-FECN-ibuf 	0
scalar fattree_648_network.servers[6].gen 	"generate BECN" 	0
scalar fattree_648_network.servers[6].gen 	"first packet for RTT" 	0
scalar fattree_648_network.servers[6].sink 	"Time last packet consumed:" 	0
statistic fattree_648_network.servers[6].sink 	"Waiting time statistics"
field count 0
field mean nan
field stddev nan
field sum 0
field sqrsum 0
field min nan
field max nan
statistic fattree_648_network.servers[6].sink 	"Packet Fabric Time"
field count 0
field mean nan
field stddev nan
field sum 0
field sqrsum 0
field min nan
field max nan
bin	-INF	0
bin	0	0
bin	0.033333333333333	0
bin	0.066666666666667	0
bin	0.1	0
bin	0.13333333333333	0
bin	0.16666666666667	0
bin	0.2	0
bin	0.23333333333333	0
bin	0.26666666666667	0
bin	0.3	0
bin	0.33333333333333	0
bin	0.36666666666667	0
bin	0.4	0
bin	0.43333333333333	0
bin	0.46666666666667	0
bin	0.5	0
bin	0.53333333333333	0
bin	0.56666666666667	0
bin	0.6	0
bin	0.63333333333333	0
bin	0.66666666666667	0
bin	0.7	0
bin	0.73333333333333	0
bin	0.76666666666667	0
bin	0.8	0
bin	0.83333333333333	0
bin	0.86666666666667	0
bin	0.9	0
bin	0.93333333333333	0
bin	0.96666666666667	0
bin	1	0
statistic fattree_648_network.servers[6].sink 	Msg-Network-Latency
field count 0
field mean nan
field stddev nan
field sum 0
field sqrsum 0
field min nan
field max nan
bin	-INF	0
bin	-0.5	0
bin	-0.46666666666667	0
bin	-0.43333333333333	0
bin	-0.4	0
bin	-0.36666666666667	0
bin	-0.33333333333333	0
bin	-0.3	0
bin	-0.26666666666667	0
bin	-0.23333333333333	0
bin	-0.2	0
bin	-0.16666666666667	0
bin	-0.13333333333333	0
bin	-0.1	0
bin	-0.066666666666667	0
bin	-0.033333333333333	0
bin	0	0
bin	0.033333333333333	0
bin	0.066666666666667	0
bin	0.1	0
bin	0.13333333333333	0
bin	0.16666666666667	0
bin	0.2	0
bin	0.23333333333333	0
bin	0.26666666666667	0
bin	0.3	0
bin	0.33333333333333	0
bin	0.36666666666667	0
bin	0.4	0
bin	0.43333333333333	0
bin	0.46666666666667	0
bin	0.5	0
statistic fattree_648_network.servers[6].sink 	Msg-First2First-Network-Latency
field count 0
field mean nan
field stddev nan
field sum 0
field sqrsum 0
field min nan
field max nan
bin	-INF	0
bin	-0.5	0
bin	-0.46666666666667	0
bin	-0.43333333333333	0
bin	-0.4	0
bin	-0.36666666666667	0
bin	-0.33333333333333	0
bin	-0.3	0
bin	-0.26666666666667	0
bin	-0.23333333333333	0
bin	-0.2	0
bin	-0.16666666666667	0
bin	-0.13333333333333	0
bin	-0.1	0
bin	-0.066666666666667	0
bin	-0.033333333333333	0
bin	0	0
bin	0.033333333333333	0
bin	0.066666666666667	0
bin	0.1	0
bin	0.13333333333333	0
bin	0.16666666666667	0
bin	0.2	0
bin	0.23333333333333	0
bin	0.26666666666667	0
bin	0.3	0
bin	0.33333333333333	0
bin	0.36666666666667	0
bin	0.4	0
bin	0.43333333333333	0
bin	0.46666666666667	0
bin	0.5	0
statistic fattree_648_network.servers[6].sink 	Enough-Pkts-Network-Latency
field count 0
field mean nan
field stddev nan
field sum 0
field sqrsum 0
field min nan
field max nan
bin	-INF	0
bin	-0.5	0
bin	-0.46666666666667	0
bin	-0.43333333333333	0
bin	-0.4	0
bin	-0.36666666666667	0
bin	-0.33333333333333	0
bin	-0.3	0
bin	-0.26666666666667	0
bin	-0.23333333333333	0
bin	-0.2	0
bin	-0.16666666666667	0
bin	-0.13333333333333	0
bin	-0.1	0
bin	-0.066666666666667	0
bin	-0.033333333333333	0
bin	0	0
bin	0.033333333333333	0
bin	0.066666666666667	0
bin	0.1	0
bin	0.13333333333333	0
bin	0.16666666666667	0
bin	0.2	0
bin	0.23333333333333	0
bin	0.26666666666667	0
bin	0.3	0
bin	0.33333333333333	0
bin	0.36666666666667	0
bin	0.4	0
bin	0.43333333333333	0
bin	0.46666666666667	0
bin	0.5	0
statistic fattree_648_network.servers[6].sink 	Last-to-Enough-Pkt-Arrival
field count 0
field mean nan
field stddev nan
field sum 0
field sqrsum 0
field min nan
field max nan
scalar fattree_648_network.servers[6].sink 	Sink-BW-MBps 	0
scalar fattree_648_network.servers[6].sink 	VL-0-total-flits 	0
statistic fattree_648_network.servers[6].sink 	OOO-Window-Pkts
field count 0
field mean nan
field stddev nan
field sum 0
field sqrsum 0
field min nan
field max nan
scalar fattree_648_network.servers[6].sink 	OO-IO-Packets-Ratio 	nan
scalar fattree_648_network.servers[6].sink 	Num-SRCs 	0
scalar fattree_648_network.servers[6].sink 	Received-BECN 	0
statistic fattree_648_network.servers[6].obuf 	"Flits Sources"
field count 0
field mean nan
field stddev nan
field sum 0
field sqrsum 0
field min nan
field max nan
scalar fattree_648_network.servers[6].ibuf 	marknum 	0
scalar fattree_648_network.servers[6].ibuf 	Received-BECN-ibuf 	0
scalar fattree_648_network.servers[6].ibuf 	Received-FECN-ibuf 	0
scalar fattree_648_network.servers[7].gen 	"generate BECN" 	0
scalar fattree_648_network.servers[7].gen 	"first packet for RTT" 	0
scalar fattree_648_network.servers[7].sink 	"Time last packet consumed:" 	0
statistic fattree_648_network.servers[7].sink 	"Waiting time statistics"
field count 0
field mean nan
field stddev nan
field sum 0
field sqrsum 0
field min nan
field max nan
statistic fattree_648_network.servers[7].sink 	"Packet Fabric Time"
field count 0
field mean nan
field stddev nan
field sum 0
field sqrsum 0
field min nan
field max nan
bin	-INF	0
bin	0	0
bin	0.033333333333333	0
bin	0.066666666666667	0
bin	0.1	0
bin	0.13333333333333	0
bin	0.16666666666667	0
bin	0.2	0
bin	0.23333333333333	0
bin	0.26666666666667	0
bin	0.3	0
bin	0.33333333333333	0
bin	0.36666666666667	0
bin	0.4	0
bin	0.43333333333333	0
bin	0.46666666666667	0
bin	0.5	0
bin	0.53333333333333	0
bin	0.56666666666667	0
bin	0.6	0
bin	0.63333333333333	0
bin	0.66666666666667	0
bin	0.7	0
bin	0.73333333333333	0
bin	0.76666666666667	0
bin	0.8	0
bin	0.83333333333333	0
bin	0.86666666666667	0
bin	0.9	0
bin	0.93333333333333	0
bin	0.96666666666667	0
bin	1	0
statistic fattree_648_network.servers[7].sink 	Msg-Network-Latency
field count 0
field mean nan
field stddev nan
field sum 0
field sqrsum 0
field min nan
field max nan
bin	-INF	0
bin	-0.5	0
bin	-0.46666666666667	0
bin	-0.43333333333333	0
bin	-0.4	0
bin	-0.36666666666667	0
bin	-0.33333333333333	0
bin	-0.3	0
bin	-0.26666666666667	0
bin	-0.23333333333333	0
bin	-0.2	0
bin	-0.16666666666667	0
bin	-0.13333333333333	0
bin	-0.1	0
bin	-0.066666666666667	0
bin	-0.033333333333333	0
bin	0	0
bin	0.033333333333333	0
bin	0.066666666666667	0
bin	0.1	0
bin	0.13333333333333	0
bin	0.16666666666667	0
bin	0.2	0
bin	0.23333333333333	0
bin	0.26666666666667	0
bin	0.3	0
bin	0.33333333333333	0
bin	0.36666666666667	0
bin	0.4	0
bin	0.43333333333333	0
bin	0.46666666666667	0
bin	0.5	0
statistic fattree_648_network.servers[7].sink 	Msg-First2First-Network-Latency
field count 0
field mean nan
field stddev nan
field sum 0
field sqrsum 0
field min nan
field max nan
bin	-INF	0
bin	-0.5	0
bin	-0.46666666666667	0
bin	-0.43333333333333	0
bin	-0.4	0
bin	-0.36666666666667	0
bin	-0.33333333333333	0
bin	-0.3	0
bin	-0.26666666666667	0
bin	-0.23333333333333	0
bin	-0.2	0
bin	-0.16666666666667	0
bin	-0.13333333333333	0
bin	-0.1	0
bin	-0.066666666666667	0
bin	-0.033333333333333	0
bin	0	0
bin	0.033333333333333	0
bin	0.066666666666667	0
bin	0.1	0
bin	0.13333333333333	0
bin	0.16666666666667	0
bin	0.2	0
bin	0.23333333333333	0
bin	0.26666666666667	0
bin	0.3	0
bin	0.33333333333333	0
bin	0.36666666666667	0
bin	0.4	0
bin	0.43333333333333	0
bin	0.46666666666667	0
bin	0.5	0
statistic fattree_648_network.servers[7].sink 	Enough-Pkts-Network-Latency
field count 0
field mean nan
field stddev nan
field sum 0
field sqrsum 0
field min nan
field max nan
bin	-INF	0
bin	-0.5	0
bin	-0.46666666666667	0
bin	-0.43333333333333	0
bin	-0.4	0
bin	-0.36666666666667	0
bin	-0.33333333333333	0
bin	-0.3	0
bin	-0.26666666666667	0
bin	-0.23333333333333	0
bin	-0.2	0
bin	-0.16666666666667	0
bin	-0.13333333333333	0
bin	-0.1	0
bin	-0.066666666666667	0
bin	-0.033333333333333	0
bin	0	0
bin	0.033333333333333	0
bin	0.066666666666667	0
bin	0.1	0
bin	0.13333333333333	0
bin	0.16666666666667	0
bin	0.2	0
bin	0.23333333333333	0
bin	0.26666666666667	0
bin	0.3	0
bin	0.33333333333333	0
bin	0.36666666666667	0
bin	0.4	0
bin	0.43333333333333	0
bin	0.46666666666667	0
bin	0.5	0
statistic fattree_648_network.servers[7].sink 	Last-to-Enough-Pkt-Arrival
field count 0
field mean nan
field stddev nan
field sum 0
field sqrsum 0
field min nan
field max nan
scalar fattree_648_network.servers[7].sink 	Sink-BW-MBps 	0
scalar fattree_648_network.servers[7].sink 	VL-0-total-flits 	0
statistic fattree_648_network.servers[7].sink 	OOO-Window-Pkts
field count 0
field mean nan
field stddev nan
field sum 0
field sqrsum 0
field min nan
field max nan
scalar fattree_648_network.servers[7].sink 	OO-IO-Packets-Ratio 	nan
scalar fattree_648_network.servers[7].sink 	Num-SRCs 	0
scalar fattree_648_network.servers[7].sink 	Received-BECN 	0
statistic fattree_648_network.servers[7].obuf 	"Flits Sources"
field count 0
field mean nan
field stddev nan
field sum 0
field sqrsum 0
field min nan
field max nan
scalar fattree_648_network.servers[7].ibuf 	marknum 	0
scalar fattree_648_network.servers[7].ibuf 	Received-BECN-ibuf 	0
scalar fattree_648_network.servers[7].ibuf 	Received-FECN-ibuf 	0
scalar fattree_648_network.servers[8].gen 	"generate BECN" 	0
scalar fattree_648_network.servers[8].gen 	"first packet for RTT" 	0
scalar fattree_648_network.servers[8].sink 	"Time last packet consumed:" 	0
statistic fattree_648_network.servers[8].sink 	"Waiting time statistics"
field count 0
field mean nan
field stddev nan
field sum 0
field sqrsum 0
field min nan
field max nan
statistic fattree_648_network.servers[8].sink 	"Packet Fabric Time"
field count 0
field mean nan
field stddev nan
field sum 0
field sqrsum 0
field min nan
field max nan
bin	-INF	0
bin	0	0
bin	0.033333333333333	0
bin	0.066666666666667	0
bin	0.1	0
bin	0.13333333333333	0
bin	0.16666666666667	0
bin	0.2	0
bin	0.23333333333333	0
bin	0.26666666666667	0
bin	0.3	0
bin	0.33333333333333	0
bin	0.36666666666667	0
bin	0.4	0
bin	0.43333333333333	0
bin	0.46666666666667	0
bin	0.5	0
bin	0.53333333333333	0
bin	0.56666666666667	0
bin	0.6	0
bin	0.63333333333333	0
bin	0.66666666666667	0
bin	0.7	0
bin	0.73333333333333	0
bin	0.76666666666667	0
bin	0.8	0
bin	0.83333333333333	0
bin	0.86666666666667	0
bin	0.9	0
bin	0.93333333333333	0
bin	0.96666666666667	0
bin	1	0
statistic fattree_648_network.servers[8].sink 	Msg-Network-Latency
field count 0
field mean nan
field stddev nan
field sum 0
field sqrsum 0
field min nan
field max nan
bin	-INF	0
bin	-0.5	0
bin	-0.46666666666667	0
bin	-0.43333333333333	0
bin	-0.4	0
bin	-0.36666666666667	0
bin	-0.33333333333333	0
bin	-0.3	0
bin	-0.26666666666667	0
bin	-0.23333333333333	0
bin	-0.2	0
bin	-0.16666666666667	0
bin	-0.13333333333333	0
bin	-0.1	0
bin	-0.066666666666667	0
bin	-0.033333333333333	0
bin	0	0
bin	0.033333333333333	0
bin	0.066666666666667	0
bin	0.1	0
bin	0.13333333333333	0
bin	0.16666666666667	0
bin	0.2	0
bin	0.23333333333333	0
bin	0.26666666666667	0
bin	0.3	0
bin	0.33333333333333	0
bin	0.36666666666667	0
bin	0.4	0
bin	0.43333333333333	0
bin	0.46666666666667	0
bin	0.5	0
statistic fattree_648_network.servers[8].sink 	Msg-First2First-Network-Latency
field count 0
field mean nan
field stddev nan
field sum 0
field sqrsum 0
field min nan
field max nan
bin	-INF	0
bin	-0.5	0
bin	-0.46666666666667	0
bin	-0.43333333333333	0
bin	-0.4	0
bin	-0.36666666666667	0
bin	-0.33333333333333	0
bin	-0.3	0
bin	-0.26666666666667	0
bin	-0.23333333333333	0
bin	-0.2	0
bin	-0.16666666666667	0
bin	-0.13333333333333	0
bin	-0.1	0
bin	-0.066666666666667	0
bin	-0.033333333333333	0
bin	0	0
bin	0.033333333333333	0
bin	0.066666666666667	0
bin	0.1	0
bin	0.13333333333333	0
bin	0.16666666666667	0
bin	0.2	0
bin	0.23333333333333	0
bin	0.26666666666667	0
bin	0.3	0
bin	0.33333333333333	0
bin	0.36666666666667	0
bin	0.4	0
bin	0.43333333333333	0
bin	0.46666666666667	0
bin	0.5	0
statistic fattree_648_network.servers[8].sink 	Enough-Pkts-Network-Latency
field count 0
field mean nan
field stddev nan
field sum 0
field sqrsum 0
field min nan
field max nan
bin	-INF	0
bin	-0.5	0
bin	-0.46666666666667	0
bin	-0.43333333333333	0
bin	-0.4	0
bin	-0.36666666666667	0
bin	-0.33333333333333	0
bin	-0.3	0
bin	-0.26666666666667	0
bin	-0.23333333333333	0
bin	-0.2	0
bin	-0.16666666666667	0
bin	-0.13333333333333	0
bin	-0.1	0
bin	-0.066666666666667	0
bin	-0.033333333333333	0
bin	0	0
bin	0.033333333333333	0
bin	0.066666666666667	0
bin	0.1	0
bin	0.13333333333333	0
bin	0.16666666666667	0
bin	0.2	0
bin	0.23333333333333	0
bin	0.26666666666667	0
bin	0.3	0
bin	0.33333333333333	0
bin	0.36666666666667	0
bin	0.4	0
bin	0.43333333333333	0
bin	0.46666666666667	0
bin	0.5	0
statistic fattree_648_network.servers[8].sink 	Last-to-Enough-Pkt-Arrival
field count 0
field mean nan
field stddev nan
field sum 0
field sqrsum 0
field min nan
field max nan
scalar fattree_648_network.servers[8].sink 	Sink-BW-MBps 	0
scalar fattree_648_network.servers[8].sink 	VL-0-total-flits 	0
statistic fattree_648_network.servers[8].sink 	OOO-Window-Pkts
field count 0
field mean nan
field stddev nan
field sum 0
field sqrsum 0
field min nan
field max nan
scalar fattree_648_network.servers[8].sink 	OO-IO-Packets-Ratio 	nan
scalar fattree_648_network.servers[8].sink 	Num-SRCs 	0
scalar fattree_648_network.servers[8].sink 	Received-BECN 	0
statistic fattree_648_network.servers[8].obuf 	"Flits Sources"
field count 0
field mean nan
field stddev nan
field sum 0
field sqrsum 0
field min nan
field max nan
scalar fattree_648_network.servers[8].ibuf 	marknum 	0
scalar fattree_648_network.servers[8].ibuf 	Received-BECN-ibuf 	0
scalar fattree_648_network.servers[8].ibuf 	Received-FECN-ibuf 	0
scalar fattree_648_network.servers[9].gen 	"generate BECN" 	0
scalar fattree_648_network.servers[9].gen 	"first packet for RTT" 	0
scalar fattree_648_network.servers[9].sink 	"Time last packet consumed:" 	0
statistic fattree_648_network.servers[9].sink 	"Waiting time statistics"
field count 0
field mean nan
field stddev nan
field sum 0
field sqrsum 0
field min nan
field max nan
statistic fattree_648_network.servers[9].sink 	"Packet Fabric Time"
field count 0
field mean nan
field stddev nan
field sum 0
field sqrsum 0
field min nan
field max nan
bin	-INF	0
bin	0	0
bin	0.033333333333333	0
bin	0.066666666666667	0
bin	0.1	0
bin	0.13333333333333	0
bin	0.16666666666667	0
bin	0.2	0
bin	0.23333333333333	0
bin	0.26666666666667	0
bin	0.3	0
bin	0.33333333333333	0
bin	0.36666666666667	0
bin	0.4	0
bin	0.43333333333333	0
bin	0.46666666666667	0
bin	0.5	0
bin	0.53333333333333	0
bin	0.56666666666667	0
bin	0.6	0
bin	0.63333333333333	0
bin	0.66666666666667	0
bin	0.7	0
bin	0.73333333333333	0
bin	0.76666666666667	0
bin	0.8	0
bin	0.83333333333333	0
bin	0.86666666666667	0
bin	0.9	0
bin	0.93333333333333	0
bin	0.96666666666667	0
bin	1	0
statistic fattree_648_network.servers[9].sink 	Msg-Network-Latency
field count 0
field mean nan
field stddev nan
field sum 0
field sqrsum 0
field min nan
field max nan
bin	-INF	0
bin	-0.5	0
bin	-0.46666666666667	0
bin	-0.43333333333333	0
bin	-0.4	0
bin	-0.36666666666667	0
bin	-0.33333333333333	0
bin	-0.3	0
bin	-0.26666666666667	0
bin	-0.23333333333333	0
bin	-0.2	0
bin	-0.16666666666667	0
bin	-0.13333333333333	0
bin	-0.1	0
bin	-0.066666666666667	0
bin	-0.033333333333333	0
bin	0	0
bin	0.033333333333333	0
bin	0.066666666666667	0
bin	0.1	0
bin	0.13333333333333	0
bin	0.16666666666667	0
bin	0.2	0
bin	0.23333333333333	0
bin	0.26666666666667	0
bin	0.3	0
bin	0.33333333333333	0
bin	0.36666666666667	0
bin	0.4	0
bin	0.43333333333333	0
bin	0.46666666666667	0
bin	0.5	0
statistic fattree_648_network.servers[9].sink 	Msg-First2First-Network-Latency
field count 0
field mean nan
field stddev nan
field sum 0
field sqrsum 0
field min nan
field max nan
bin	-INF	0
bin	-0.5	0
bin	-0.46666666666667	0
bin	-0.43333333333333	0
bin	-0.4	0
bin	-0.36666666666667	0
bin	-0.33333333333333	0
bin	-0.3	0
bin	-0.26666666666667	0
bin	-0.23333333333333	0
bin	-0.2	0
bin	-0.16666666666667	0
bin	-0.13333333333333	0
bin	-0.1	0
bin	-0.066666666666667	0
bin	-0.033333333333333	0
bin	0	0
bin	0.033333333333333	0
bin	0.066666666666667	0
bin	0.1	0
bin	0.13333333333333	0
bin	0.16666666666667	0
bin	0.2	0
bin	0.23333333333333	0
bin	0.26666666666667	0
bin	0.3	0
bin	0.33333333333333	0
bin	0.36666666666667	0
bin	0.4	0
bin	0.43333333333333	0
bin	0.46666666666667	0
bin	0.5	0
statistic fattree_648_network.servers[9].sink 	Enough-Pkts-Network-Latency
field count 0
field mean nan
field stddev nan
field sum 0
field sqrsum 0
field min nan
field max nan
bin	-INF	0
bin	-0.5	0
bin	-0.46666666666667	0
bin	-0.43333333333333	0
bin	-0.4	0
bin	-0.36666666666667	0
bin	-0.33333333333333	0
bin	-0.3	0
bin	-0.26666666666667	0
bin	-0.23333333333333	0
bin	-0.2	0
bin	-0.16666666666667	0
bin	-0.13333333333333	0
bin	-0.1	0
bin	-0.066666666666667	0
bin	-0.033333333333333	0
bin	0	0
bin	0.033333333333333	0
bin	0.066666666666667	0
bin	0.1	0
bin	0.13333333333333	0
bin	0.16666666666667	0
bin	0.2	0
bin	0.23333333333333	0
bin	0.26666666666667	0
bin	0.3	0
bin	0.33333333333333	0
bin	0.36666666666667	0
bin	0.4	0
bin	0.43333333333333	0
bin	0.46666666666667	0
bin	0.5	0
statistic fattree_648_network.servers[9].sink 	Last-to-Enough-Pkt-Arrival
field count 0
field mean nan
field stddev nan
field sum 0
field sqrsum 0
field min nan
field max nan
scalar fattree_648_network.servers[9].sink 	Sink-BW-MBps 	0
scalar fattree_648_network.servers[9].sink 	VL-0-total-flits 	0
statistic fattree_648_network.servers[9].sink 	OOO-Window-Pkts
field count 0
field mean nan
field stddev nan
field sum 0
field sqrsum 0
field min nan
field max nan
scalar fattree_648_network.servers[9].sink 	OO-IO-Packets-Ratio 	nan
scalar fattree_648_network.servers[9].sink 	Num-SRCs 	0
scalar fattree_648_network.servers[9].sink 	Received-BECN 	0
statistic fattree_648_network.servers[9].obuf 	"Flits Sources"
field count 0
field mean nan
field stddev nan
field sum 0
field sqrsum 0
field min nan
field max nan
scalar fattree_648_network.servers[9].ibuf 	marknum 	0
scalar fattree_648_network.servers[9].ibuf 	Received-BECN-ibuf 	0
scalar fattree_648_network.servers[9].ibuf 	Received-FECN-ibuf 	0
scalar fattree_648_network.servers[10].gen 	"generate BECN" 	0
scalar fattree_648_network.servers[10].gen 	"first packet for RTT" 	0
scalar fattree_648_network.servers[10].sink 	"Time last packet consumed:" 	0
statistic fattree_648_network.servers[10].sink 	"Waiting time statistics"
field count 0
field mean nan
field stddev nan
field sum 0
field sqrsum 0
field min nan
field max nan
statistic fattree_648_network.servers[10].sink 	"Packet Fabric Time"
field count 0
field mean nan
field stddev nan
field sum 0
field sqrsum 0
field min nan
field max nan
bin	-INF	0
bin	0	0
bin	0.033333333333333	0
bin	0.066666666666667	0
bin	0.1	0
bin	0.13333333333333	0
bin	0.16666666666667	0
bin	0.2	0
bin	0.23333333333333	0
bin	0.26666666666667	0
bin	0.3	0
bin	0.33333333333333	0
bin	0.36666666666667	0
bin	0.4	0
bin	0.43333333333333	0
bin	0.46666666666667	0
bin	0.5	0
bin	0.53333333333333	0
bin	0.56666666666667	0
bin	0.6	0
bin	0.63333333333333	0
bin	0.66666666666667	0
bin	0.7	0
bin	0.73333333333333	0
bin	0.76666666666667	0
bin	0.8	0
bin	0.83333333333333	0
bin	0.86666666666667	0
bin	0.9	0
bin	0.93333333333333	0
bin	0.96666666666667	0
bin	1	0
statistic fattree_648_network.servers[10].sink 	Msg-Network-Latency
field count 0
field mean nan
field stddev nan
field sum 0
field sqrsum 0
field min nan
field max nan
bin	-INF	0
bin	-0.5	0
bin	-0.46666666666667	0
bin	-0.43333333333333	0
bin	-0.4	0
bin	-0.36666666666667	0
bin	-0.33333333333333	0
bin	-0.3	0
bin	-0.26666666666667	0
bin	-0.23333333333333	0
bin	-0.2	0
bin	-0.16666666666667	0
bin	-0.13333333333333	0
bin	-0.1	0
bin	-0.066666666666667	0
bin	-0.033333333333333	0
bin	0	0
bin	0.033333333333333	0
bin	0.066666666666667	0
bin	0.1	0
bin	0.13333333333333	0
bin	0.16666666666667	0
bin	0.2	0
bin	0.23333333333333	0
bin	0.26666666666667	0
bin	0.3	0
bin	0.33333333333333	0
bin	0.36666666666667	0
bin	0.4	0
bin	0.43333333333333	0
bin	0.46666666666667	0
bin	0.5	0
statistic fattree_648_network.servers[10].sink 	Msg-First2First-Network-Latency
field count 0
field mean nan
field stddev nan
field sum 0
field sqrsum 0
field min nan
field max nan
bin	-INF	0
bin	-0.5	0
bin	-0.46666666666667	0
bin	-0.43333333333333	0
bin	-0.4	0
bin	-0.36666666666667	0
bin	-0.33333333333333	0
bin	-0.3	0
bin	-0.26666666666667	0
bin	-0.23333333333333	0
bin	-0.2	0
bin	-0.16666666666667	0
bin	-0.13333333333333	0
bin	-0.1	0
bin	-0.066666666666667	0
bin	-0.033333333333333	0
bin	0	0
bin	0.033333333333333	0
bin	0.066666666666667	0
bin	0.1	0
bin	0.13333333333333	0
bin	0.16666666666667	0
bin	0.2	0
bin	0.23333333333333	0
bin	0.26666666666667	0
bin	0.3	0
bin	0.33333333333333	0
bin	0.36666666666667	0
bin	0.4	0
bin	0.43333333333333	0
bin	0.46666666666667	0
bin	0.5	0
statistic fattree_648_network.servers[10].sink 	Enough-Pkts-Network-Latency
field count 0
field mean nan
field stddev nan
field sum 0
field sqrsum 0
field min nan
field max nan
bin	-INF	0
bin	-0.5	0
bin	-0.46666666666667	0
bin	-0.43333333333333	0
bin	-0.4	0
bin	-0.36666666666667	0
bin	-0.33333333333333	0
bin	-0.3	0
bin	-0.26666666666667	0
bin	-0.23333333333333	0
bin	-0.2	0
bin	-0.16666666666667	0
bin	-0.13333333333333	0
bin	-0.1	0
bin	-0.066666666666667	0
bin	-0.033333333333333	0
bin	0	0
bin	0.033333333333333	0
bin	0.066666666666667	0
bin	0.1	0
bin	0.13333333333333	0
bin	0.16666666666667	0
bin	0.2	0
bin	0.23333333333333	0
bin	0.26666666666667	0
bin	0.3	0
bin	0.33333333333333	0
bin	0.36666666666667	0
bin	0.4	0
bin	0.43333333333333	0
bin	0.46666666666667	0
bin	0.5	0
statistic fattree_648_network.servers[10].sink 	Last-to-Enough-Pkt-Arrival
field count 0
field mean nan
field stddev nan
field sum 0
field sqrsum 0
field min nan
field max nan
scalar fattree_648_network.servers[10].sink 	Sink-BW-MBps 	0
scalar fattree_648_network.servers[10].sink 	VL-0-total-flits 	0
statistic fattree_648_network.servers[10].sink 	OOO-Window-Pkts
field count 0
field mean nan
field stddev nan
field sum 0
field sqrsum 0
field min nan
field max nan
scalar fattree_648_network.servers[10].sink 	OO-IO-Packets-Ratio 	nan
scalar fattree_648_network.servers[10].sink 	Num-SRCs 	0
scalar fattree_648_network.servers[10].sink 	Received-BECN 	0
statistic fattree_648_network.servers[10].obuf 	"Flits Sources"
field count 0
field mean nan
field stddev nan
field sum 0
field sqrsum 0
field min nan
field max nan
scalar fattree_648_network.servers[10].ibuf 	marknum 	0
scalar fattree_648_network.servers[10].ibuf 	Received-BECN-ibuf 	0
scalar fattree_648_network.servers[10].ibuf 	Received-FECN-ibuf 	0
scalar fattree_648_network.servers[11].gen 	"generate BECN" 	0
scalar fattree_648_network.servers[11].gen 	"first packet for RTT" 	0
scalar fattree_648_network.servers[11].sink 	"Time last packet consumed:" 	0
statistic fattree_648_network.servers[11].sink 	"Waiting time statistics"
field count 0
field mean nan
field stddev nan
field sum 0
field sqrsum 0
[...]
field max nan
scalar fattree_648_network.spine_switches[16].port[25].ibuf 	marknum 	0
scalar fattree_648_network.spine_switches[16].port[25].ibuf 	Received-BECN-ibuf 	0
scalar fattree_648_network.spine_switches[16].port[25].ibuf 	Received-FECN-ibuf 	0
statistic fattree_648_network.spine_switches[16].port[26].obuf 	"Flits Sources"
field count 0
field mean nan
field stddev nan
field sum 0
field sqrsum 0
field min nan
field max nan
scalar fattree_648_network.spine_switches[16].port[26].ibuf 	marknum 	0
scalar fattree_648_network.spine_switches[16].port[26].ibuf 	Received-BECN-ibuf 	0
scalar fattree_648_network.spine_switches[16].port[26].ibuf 	Received-FECN-ibuf 	0
statistic fattree_648_network.spine_switches[16].port[27].obuf 	"Flits Sources"
field count 0
field mean nan
field stddev nan
field sum 0
field sqrsum 0
field min nan
field max nan
scalar fattree_648_network.spine_switches[16].port[27].ibuf 	marknum 	0
scalar fattree_648_network.spine_switches[16].port[27].ibuf 	Received-BECN-ibuf 	0
scalar fattree_648_network.spine_switches[16].port[27].ibuf 	Received-FECN-ibuf 	0
statistic fattree_648_network.spine_switches[16].port[28].obuf 	"Flits Sources"
field count 0
field mean nan
field stddev nan
field sum 0
field sqrsum 0
field min nan
field max nan
scalar fattree_648_network.spine_switches[16].port[28].ibuf 	marknum 	0
scalar fattree_648_network.spine_switches[16].port[28].ibuf 	Received-BECN-ibuf 	0
scalar fattree_648_network.spine_switches[16].port[28].ibuf 	Received-FECN-ibuf 	0
statistic fattree_648_network.spine_switches[16].port[29].obuf 	"Flits Sources"
field count 0
field mean nan
field stddev nan
field sum 0
field sqrsum 0
field min nan
field max nan
scalar fattree_648_network.spine_switches[16].port[29].ibuf 	marknum 	0
scalar fattree_648_network.spine_switches[16].port[29].ibuf 	Received-BECN-ibuf 	0
scalar fattree_648_network.spine_switches[16].port[29].ibuf 	Received-FECN-ibuf 	0
statistic fattree_648_network.spine_switches[16].port[30].obuf 	"Flits Sources"
field count 0
field mean nan
field stddev nan
field sum 0
field sqrsum 0
field min nan
field max nan
scalar fattree_648_network.spine_switches[16].port[30].ibuf 	marknum 	0
scalar fattree_648_network.spine_switches[16].port[30].ibuf 	Received-BECN-ibuf 	0
scalar fattree_648_network.spine_switches[16].port[30].ibuf 	Received-FECN-ibuf 	0
statistic fattree_648_network.spine_switches[16].port[31].obuf 	"Flits Sources"
field count 0
field mean nan
field stddev nan
field sum 0
field sqrsum 0
field min nan
field max nan
scalar fattree_648_network.spine_switches[16].port[31].ibuf 	marknum 	0
scalar fattree_648_network.spine_switches[16].port[31].ibuf 	Received-BECN-ibuf 	0
scalar fattree_648_network.spine_switches[16].port[31].ibuf 	Received-FECN-ibuf 	0
statistic fattree_648_network.spine_switches[16].port[32].obuf 	"Flits Sources"
field count 0
field mean nan
field stddev nan
field sum 0
field sqrsum 0
field min nan
field max nan
scalar fattree_648_network.spine_switches[16].port[32].ibuf 	marknum 	0
scalar fattree_648_network.spine_switches[16].port[32].ibuf 	Received-BECN-ibuf 	0
scalar fattree_648_network.spine_switches[16].port[32].ibuf 	Received-FECN-ibuf 	0
statistic fattree_648_network.spine_switches[16].port[33].obuf 	"Flits Sources"
field count 0
field mean nan
field stddev nan
field sum 0
field sqrsum 0
field min nan
field max nan
scalar fattree_648_network.spine_switches[16].port[33].ibuf 	marknum 	0
scalar fattree_648_network.spine_switches[16].port[33].ibuf 	Received-BECN-ibuf 	0
scalar fattree_648_network.spine_switches[16].port[33].ibuf 	Received-FECN-ibuf 	0
statistic fattree_648_network.spine_switches[16].port[34].obuf 	"Flits Sources"
field count 0
field mean nan
field stddev nan
field sum 0
field sqrsum 0
field min nan
field max nan
scalar fattree_648_network.spine_switches[16].port[34].ibuf 	marknum 	0
scalar fattree_648_network.spine_switches[16].port[34].ibuf 	Received-BECN-ibuf 	0
scalar fattree_648_network.spine_switches[16].port[34].ibuf 	Received-FECN-ibuf 	0
statistic fattree_648_network.spine_switches[16].port[35].obuf 	"Flits Sources"
field count 0
field mean nan
field stddev nan
field sum 0
field sqrsum 0
field min nan
field max nan
scalar fattree_648_network.spine_switches[16].port[35].ibuf 	marknum 	0
scalar fattree_648_network.spine_switches[16].port[35].ibuf 	Received-BECN-ibuf 	0
scalar fattree_648_network.spine_switches[16].port[35].ibuf 	Received-FECN-ibuf 	0
statistic fattree_648_network.spine_switches[17].port[0].obuf 	"Flits Sources"
field count 0
field mean nan
field stddev nan
field sum 0
field sqrsum 0
field min nan
field max nan
scalar fattree_648_network.spine_switches[17].port[0].ibuf 	marknum 	0
scalar fattree_648_network.spine_switches[17].port[0].ibuf 	Received-BECN-ibuf 	0
scalar fattree_648_network.spine_switches[17].port[0].ibuf 	Received-FECN-ibuf 	0
statistic fattree_648_network.spine_switches[17].port[1].obuf 	"Flits Sources"
field count 0
field mean nan
field stddev nan
field sum 0
field sqrsum 0
field min nan
field max nan
scalar fattree_648_network.spine_switches[17].port[1].ibuf 	marknum 	0
scalar fattree_648_network.spine_switches[17].port[1].ibuf 	Received-BECN-ibuf 	0
scalar fattree_648_network.spine_switches[17].port[1].ibuf 	Received-FECN-ibuf 	0
statistic fattree_648_network.spine_switches[17].port[2].obuf 	"Flits Sources"
field count 0
field mean nan
field stddev nan
field sum 0
field sqrsum 0
field min nan
field max nan
scalar fattree_648_network.spine_switches[17].port[2].ibuf 	marknum 	0
scalar fattree_648_network.spine_switches[17].port[2].ibuf 	Received-BECN-ibuf 	0
scalar fattree_648_network.spine_switches[17].port[2].ibuf 	Received-FECN-ibuf 	0
statistic fattree_648_network.spine_switches[17].port[3].obuf 	"Flits Sources"
field count 0
field mean nan
field stddev nan
field sum 0
field sqrsum 0
field min nan
field max nan
scalar fattree_648_network.spine_switches[17].port[3].ibuf 	marknum 	0
scalar fattree_648_network.spine_switches[17].port[3].ibuf 	Received-BECN-ibuf 	0
scalar fattree_648_network.spine_switches[17].port[3].ibuf 	Received-FECN-ibuf 	0
statistic fattree_648_network.spine_switches[17].port[4].obuf 	"Flits Sources"
field count 0
field mean nan
field stddev nan
field sum 0
field sqrsum 0
field min nan
field max nan
scalar fattree_648_network.spine_switches[17].port[4].ibuf 	marknum 	0
scalar fattree_648_network.spine_switches[17].port[4].ibuf 	Received-BECN-ibuf 	0
scalar fattree_648_network.spine_switches[17].port[4].ibuf 	Received-FECN-ibuf 	0
statistic fattree_648_network.spine_switches[17].port[5].obuf 	"Flits Sources"
field count 0
field mean nan
field stddev nan
field sum 0
field sqrsum 0
field min nan
field max nan
scalar fattree_648_network.spine_switches[17].port[5].ibuf 	marknum 	0
scalar fattree_648_network.spine_switches[17].port[5].ibuf 	Received-BECN-ibuf 	0
scalar fattree_648_network.spine_switches[17].port[5].ibuf 	Received-FECN-ibuf 	0
statistic fattree_648_network.spine_switches[17].port[6].obuf 	"Flits Sources"
field count 0
field mean nan
field stddev nan
field sum 0
field sqrsum 0
field min nan
field max nan
scalar fattree_648_network.spine_switches[17].port[6].ibuf 	marknum 	0
scalar fattree_648_network.spine_switches[17].port[6].ibuf 	Received-BECN-ibuf 	0
scalar fattree_648_network.spine_switches[17].port[6].ibuf 	Received-FECN-ibuf 	0
statistic fattree_648_network.spine_switches[17].port[7].obuf 	"Flits Sources"
field count 0
field mean nan
field stddev nan
field sum 0
field sqrsum 0
field min nan
field max nan
scalar fattree_648_network.spine_switches[17].port[7].ibuf 	marknum 	0
scalar fattree_648_network.spine_switches[17].port[7].ibuf 	Received-BECN-ibuf 	0
scalar fattree_648_network.spine_switches[17].port[7].ibuf 	Received-FECN-ibuf 	0
statistic fattree_648_network.spine_switches[17].port[8].obuf 	"Flits Sources"
field count 0
field mean nan
field stddev nan
field sum 0
field sqrsum 0
field min nan
field max nan
scalar fattree_648_network.spine_switches[17].port[8].ibuf 	marknum 	0
scalar fattree_648_network.spine_switches[17].port[8].ibuf 	Received-BECN-ibuf 	0
scalar fattree_648_network.spine_switches[17].port[8].ibuf 	Received-FECN-ibuf 	0
statistic fattree_648_network.spine_switches[17].port[9].obuf 	"Flits Sources"
field count 0
field mean nan
field stddev nan
field sum 0
field sqrsum 0
field min nan
field max nan
scalar fattree_648_network.spine_switches[17].port[9].ibuf 	marknum 	0
scalar fattree_648_network.spine_switches[17].port[9].ibuf 	Received-BECN-ibuf 	0
scalar fattree_648_network.spine_switches[17].port[9].ibuf 	Received-FECN-ibuf 	0
statistic fattree_648_network.spine_switches[17].port[10].obuf 	"Flits Sources"
field count 0
field mean nan
field stddev nan
field sum 0
field sqrsum 0
field min nan
field max nan
scalar fattree_648_network.spine_switches[17].port[10].ibuf 	marknum 	0
scalar fattree_648_network.spine_switches[17].port[10].ibuf 	Received-BECN-ibuf 	0
scalar fattree_648_network.spine_switches[17].port[10].ibuf 	Received-FECN-ibuf 	0
statistic fattree_648_network.spine_switches[17].port[11].obuf 	"Flits Sources"
field count 0
field mean nan
field stddev nan
field sum 0
field sqrsum 0
field min nan
field max nan
scalar fattree_648_network.spine_switches[17].port[11].ibuf 	marknum 	0
scalar fattree_648_network.spine_switches[17].port[11].ibuf 	Received-BECN-ibuf 	0
scalar fattree_648_network.spine_switches[17].port[11].ibuf 	Received-FECN-ibuf 	0
statistic fattree_648_network.spine_switches[17].port[12].obuf 	"Flits Sources"
field count 0
field mean nan
field stddev nan
field sum 0
field sqrsum 0
field min nan
field max nan
scalar fattree_648_network.spine_switches[17].port[12].ibuf 	marknum 	0
scalar fattree_648_network.spine_switches[17].port[12].ibuf 	Received-BECN-ibuf 	0
scalar fattree_648_network.spine_switches[17].port[12].ibuf 	Received-FECN-ibuf 	0
statistic fattree_648_network.spine_switches[17].port[13].obuf 	"Flits Sources"
field count 0
field mean nan
field stddev nan
field sum 0
field sqrsum 0
field min nan
field max nan
scalar fattree_648_network.spine_switches[17].port[13].ibuf 	marknum 	0
scalar fattree_648_network.spine_switches[17].port[13].ibuf 	Received-BECN-ibuf 	0
scalar fattree_648_network.spine_switches[17].port[13].ibuf 	Received-FECN-ibuf 	0
statistic fattree_648_network.spine_switches[17].port[14].obuf 	"Flits Sources"
field count 0
field mean nan
field stddev nan
field sum 0
field sqrsum 0
field min nan
field max nan
scalar fattree_648_network.spine_switches[17].port[14].ibuf 	marknum 	0
scalar fattree_648_network.spine_switches[17].port[14].ibuf 	Received-BECN-ibuf 	0
scalar fattree_648_network.spine_switches[17].port[14].ibuf 	Received-FECN-ibuf 	0
statistic fattree_648_network.spine_switches[17].port[15].obuf 	"Flits Sources"
field count 0
field mean nan
field stddev nan
field sum 0
field sqrsum 0
field min nan
field max nan
scalar fattree_648_network.spine_switches[17].port[15].ibuf 	marknum 	0
scalar fattree_648_network.spine_switches[17].port[15].ibuf 	Received-BECN-ibuf 	0
scalar fattree_648_network.spine_switches[17].port[15].ibuf 	Received-FECN-ibuf 	0
statistic fattree_648_network.spine_switches[17].port[16].obuf 	"Flits Sources"
field count 0
field mean nan
field stddev nan
field sum 0
field sqrsum 0
field min nan
field max nan
scalar fattree_648_network.spine_switches[17].port[16].ibuf 	marknum 	0
scalar fattree_648_network.spine_switches[17].port[16].ibuf 	Received-BECN-ibuf 	0
scalar fattree_648_network.spine_switches[17].port[16].ibuf 	Received-FECN-ibuf 	0
statistic fattree_648_network.spine_switches[17].port[17].obuf 	"Flits Sources"
field count 0
field mean nan
field stddev nan
field sum 0
field sqrsum 0
field min nan
field max nan
scalar fattree_648_network.spine_switches[17].port[17].ibuf 	marknum 	0
scalar fattree_648_network.spine_switches[17].port[17].ibuf 	Received-BECN-ibuf 	0
scalar fattree_648_network.spine_switches[17].port[17].ibuf 	Received-FECN-ibuf 	0
statistic fattree_648_network.spine_switches[17].port[18].obuf 	"Flits Sources"
field count 0
field mean nan
field stddev nan
field sum 0
field sqrsum 0
field min nan
field max nan
scalar fattree_648_network.spine_switches[17].port[18].ibuf 	marknum 	0
scalar fattree_648_network.spine_switches[17].port[18].ibuf 	Received-BECN-ibuf 	0
scalar fattree_648_network.spine_switches[17].port[18].ibuf 	Received-FECN-ibuf 	0
statistic fattree_648_network.spine_switches[17].port[19].obuf 	"Flits Sources"
field count 0
field mean nan
field stddev nan
field sum 0
field sqrsum 0
field min nan
field max nan
scalar fattree_648_network.spine_switches[17].port[19].ibuf 	marknum 	0
scalar fattree_648_network.spine_switches[17].port[19].ibuf 	Received-BECN-ibuf 	0
scalar fattree_648_network.spine_switches[17].port[19].ibuf 	Received-FECN-ibuf 	0
statistic fattree_648_network.spine_switches[17].port[20].obuf 	"Flits Sources"
field count 0
field mean nan
field stddev nan
field sum 0
field sqrsum 0
field min nan
field max nan
scalar fattree_648_network.spine_switches[17].port[20].ibuf 	marknum 	0
scalar fattree_648_network.spine_switches[17].port[20].ibuf 	Received-BECN-ibuf 	0
scalar fattree_648_network.spine_switches[17].port[20].ibuf 	Received-FECN-ibuf 	0
statistic fattree_648_network.spine_switches[17].port[21].obuf 	"Flits Sources"
field count 0
field mean nan
field stddev nan
field sum 0
field sqrsum 0
field min nan
field max nan
scalar fattree_648_network.spine_switches[17].port[21].ibuf 	marknum 	0
scalar fattree_648_network.spine_switches[17].port[21].ibuf 	Received-BECN-ibuf 	0
scalar fattree_648_network.spine_switches[17].port[21].ibuf 	Received-FECN-ibuf 	0
statistic fattree_648_network.spine_switches[17].port[22].obuf 	"Flits Sources"
field count 0
field mean nan
field stddev nan
field sum 0
field sqrsum 0
field min nan
field max nan
scalar fattree_648_network.spine_switches[17].port[22].ibuf 	marknum 	0
scalar fattree_648_network.spine_switches[17].port[22].ibuf 	Received-BECN-ibuf 	0
scalar fattree_648_network.spine_switches[17].port[22].ibuf 	Received-FECN-ibuf 	0
statistic fattree_648_network.spine_switches[17].port[23].obuf 	"Flits Sources"
field count 0
field mean nan
field stddev nan
field sum 0
field sqrsum 0
field min nan
field max nan
scalar fattree_648_network.spine_switches[17].port[23].ibuf 	marknum 	0
scalar fattree_648_network.spine_switches[17].port[23].ibuf 	Received-BECN-ibuf 	0
scalar fattree_648_network.spine_switches[17].port[23].ibuf 	Received-FECN-ibuf 	0
statistic fattree_648_network.spine_switches[17].port[24].obuf 	"Flits Sources"
field count 0
field mean nan
field stddev nan
field sum 0
field sqrsum 0
field min nan
field max nan
scalar fattree_648_network.spine_switches[17].port[24].ibuf 	marknum 	0
scalar fattree_648_network.spine_switches[17].port[24].ibuf 	Received-BECN-ibuf 	0
scalar fattree_648_network.spine_switches[17].port[24].ibuf 	Received-FECN-ibuf 	0
statistic fattree_648_network.spine_switches[17].port[25].obuf 	"Flits Sources"
field count 0
field mean nan
field stddev nan
field sum 0
field sqrsum 0
field min nan
field max nan
scalar fattree_648_network.spine_switches[17].port[25].ibuf 	marknum 	0
scalar fattree_648_network.spine_switches[17].port[25].ibuf 	Received-BECN-ibuf 	0
scalar fattree_648_network.spine_switches[17].port[25].ibuf 	Received-FECN-ibuf 	0
statistic fattree_648_network.spine_switches[17].port[26].obuf 	"Flits Sources"
field count 0
field mean nan
field stddev nan
field sum 0
field sqrsum 0
field min nan
field max nan
scalar fattree_648_network.spine_switches[17].port[26].ibuf 	marknum 	0
scalar fattree_648_network.spine_switches[17].port[26].ibuf 	Received-BECN-ibuf 	0
scalar fattree_648_network.spine_switches[17].port[26].ibuf 	Received-FECN-ibuf 	0
statistic fattree_648_network.spine_switches[17].port[27].obuf 	"Flits Sources"
field count 0
field mean nan
field stddev nan
field sum 0
field sqrsum 0
field min nan
field max nan
scalar fattree_648_network.spine_switches[17].port[27].ibuf 	marknum 	0
scalar fattree_648_network.spine_switches[17].port[27].ibuf 	Received-BECN-ibuf 	0
scalar fattree_648_network.spine_switches[17].port[27].ibuf 	Received-FECN-ibuf 	0
statistic fattree_648_network.spine_switches[17].port[28].obuf 	"Flits Sources"
field count 0
field mean nan
field stddev nan
field sum 0
field sqrsum 0
field min nan
field max nan
scalar fattree_648_network.spine_switches[17].port[28].ibuf 	marknum 	0
scalar fattree_648_network.spine_switches[17].port[28].ibuf 	Received-BECN-ibuf 	0
scalar fattree_648_network.spine_switches[17].port[28].ibuf 	Received-FECN-ibuf 	0
statistic fattree_648_network.spine_switches[17].port[29].obuf 	"Flits Sources"
field count 0
field mean nan
field stddev nan
field sum 0
field sqrsum 0
field min nan
field max nan
scalar fattree_648_network.spine_switches[17].port[29].ibuf 	marknum 	0
scalar fattree_648_network.spine_switches[17].port[29].ibuf 	Received-BECN-ibuf 	0
scalar fattree_648_network.spine_switches[17].port[29].ibuf 	Received-FECN-ibuf 	0
statistic fattree_648_network.spine_switches[17].port[30].obuf 	"Flits Sources"
field count 0
field mean nan
field stddev nan
field sum 0
field sqrsum 0
field min nan
field max nan
scalar fattree_648_network.spine_switches[17].port[30].ibuf 	marknum 	0
scalar fattree_648_network.spine_switches[17].port[30].ibuf 	Received-BECN-ibuf 	0
scalar fattree_648_network.spine_switches[17].port[30].ibuf 	Received-FECN-ibuf 	0
statistic fattree_648_network.spine_switches[17].port[31].obuf 	"Flits Sources"
field count 0
field mean nan
field stddev nan
field sum 0
field sqrsum 0
field min nan
field max nan
scalar fattree_648_network.spine_switches[17].port[31].ibuf 	marknum 	0
scalar fattree_648_network.spine_switches[17].port[31].ibuf 	Received-BECN-ibuf 	0
scalar fattree_648_network.spine_switches[17].port[31].ibuf 	Received-FECN-ibuf 	0
statistic fattree_648_network.spine_switches[17].port[32].obuf 	"Flits Sources"
field count 0
field mean nan
field stddev nan
field sum 0
field sqrsum 0
field min nan
field max nan
scalar fattree_648_network.spine_switches[17].port[32].ibuf 	marknum 	0
scalar fattree_648_network.spine_switches[17].port[32].ibuf 	Received-BECN-ibuf 	0
scalar fattree_648_network.spine_switches[17].port[32].ibuf 	Received-FECN-ibuf 	0
statistic fattree_648_network.spine_switches[17].port[33].obuf 	"Flits Sources"
field count 0
field mean nan
field stddev nan
field sum 0
field sqrsum 0
field min nan
field max nan
scalar fattree_648_network.spine_switches[17].port[33].ibuf 	marknum 	0
scalar fattree_648_network.spine_switches[17].port[33].ibuf 	Received-BECN-ibuf 	0
scalar fattree_648_network.spine_switches[17].port[33].ibuf 	Received-FECN-ibuf 	0
statistic fattree_648_network.spine_switches[17].port[34].obuf 	"Flits Sources"
field count 0
field mean nan
field stddev nan
field sum 0
field sqrsum 0
field min nan
field max nan
scalar fattree_648_network.spine_switches[17].port[34].ibuf 	marknum 	0
scalar fattree_648_network.spine_switches[17].port[34].ibuf 	Received-BECN-ibuf 	0
scalar fattree_648_network.spine_switches[17].port[34].ibuf 	Received-FECN-ibuf 	0
statistic fattree_648_network.spine_switches[17].port[35].obuf 	"Flits Sources"
field count 0
field mean nan
field stddev nan
field sum 0
field sqrsum 0
field min nan
field max nan
scalar fattree_648_network.spine_switches[17].port[35].ibuf 	marknum 	0
scalar fattree_648_network.spine_switches[17].port[35].ibuf 	Received-BECN-ibuf 	0
scalar fattree_648_network.spine_switches[17].port[35].ibuf 	Received-FECN-ibuf 	0
