version 2
run General-0-20200106-11:00:45-37760
attr configname General
attr datetime 20200106-11:00:45
attr experiment General
attr inifile fat-tree.ini
attr iterationvars ""
attr iterationvars2 $repetition=0
attr measurement ""
attr network ib_model.examples.evaluation_fattree648.fattree_648_network
attr processid 37760
attr repetition 0
attr replication #0
attr resultdir results
attr runnumber 0
attr seedset 0
param **.**servers[*].obuf.size 2
param **.**servers[*].vlarb.busWidth 16B
param **.**servers[*].vlarb.coreFreq 1000MHz
param **.**switches[*]**.fdbsVecFile "\"fat_tree_648.fdbs\""
param **.**switches[*].**.obuf.size 4
param **.**switches[*].**.vlarb.busWidth 24B
param **.**switches[*].**.vlarb.coreFreq 1200MHz
param **.**switches[*].port[*].ibuf.maxStatic* 32
param **.CCT_Timer 25us
param **.ISWDelay 50ns
param **.VSWDelay 50ns
param **.app.dstSeqVecFile "\"\""
param **.app.dstSeqVecIdx 0
param **.dstMode "\"param\""
param **.flit2FlitGap 0.001ns
param **.flitSize 2048B
param **.genDlyPerByte 0.25ns
param **.ibuf.lossyMode false
param **.leaf_switches[0]**.fdbIndex 0
param **.leaf_switches[10]**.fdbIndex 10
param **.leaf_switches[11]**.fdbIndex 11
param **.leaf_switches[12]**.fdbIndex 12
param **.leaf_switches[13]**.fdbIndex 13
param **.leaf_switches[14]**.fdbIndex 14
param **.leaf_switches[15]**.fdbIndex 15
param **.leaf_switches[16]**.fdbIndex 16
param **.leaf_switches[17]**.fdbIndex 17
param **.leaf_switches[18]**.fdbIndex 18
param **.leaf_switches[19]**.fdbIndex 19
param **.leaf_switches[1]**.fdbIndex 1
param **.leaf_switches[20]**.fdbIndex 20
param **.leaf_switches[21]**.fdbIndex 21
param **.leaf_switches[22]**.fdbIndex 22
param **.leaf_switches[23]**.fdbIndex 23
param **.leaf_switches[24]**.fdbIndex 24
param **.leaf_switches[25]**.fdbIndex 25
param **.leaf_switches[26]**.fdbIndex 26
param **.leaf_switches[27]**.fdbIndex 27
param **.leaf_switches[28]**.fdbIndex 28
param **.leaf_switches[29]**.fdbIndex 29
param **.leaf_switches[2]**.fdbIndex 2
param **.leaf_switches[30]**.fdbIndex 30
param **.leaf_switches[31]**.fdbIndex 31
param **.leaf_switches[32]**.fdbIndex 32
param **.leaf_switches[33]**.fdbIndex 33
param **.leaf_switches[34]**.fdbIndex 34
param **.leaf_switches[35]**.fdbIndex 35
param **.leaf_switches[3]**.fdbIndex 3
param **.leaf_switches[4]**.fdbIndex 4
param **.leaf_switches[5]**.fdbIndex 5
param **.leaf_switches[6]**.fdbIndex 6
param **.leaf_switches[7]**.fdbIndex 7
param **.leaf_switches[8]**.fdbIndex 8
param **.leaf_switches[9]**.fdbIndex 9
param **.maxContPkts 10
param **.maxQueuedPerVL 10
param **.maxVL 0
param **.msgLenMode "\"param\""
param **.msgLenProb "\"1 1 1 1\""
param **.msgLenSet "\"4096 4096 4096\""
param **.msgMtuLen 2048B
param **.msgSQ 0
param **.obuf.credMinTime 4.096us
param **.obuf.width 4
param **.on_cc 0
param **.on_newcc 1
param **.pkt2PktGap 0.001ns
param **.pktFwdType "\"Pktfwd\""
param **.pktfwd.ARAdaptThd 4
param **.pktfwd.AdaptMode "\"none\""
param **.pktfwd.GreedyRandSize 3
param **.pktfwd.LIDBindTime 2us
param **.pktfwd.OPSelAlgo "\"greedy\""
param **.pktfwd.OPSelOffsetByDLID 0
param **.pktfwd.TQBusy1Thd 20
param **.pktfwd.TQBusy2Thd 40
param **.pktfwd.TQBusy3Thd 80
param **.pktfwd.statRepTime 10us
param **.popDlyPerByte 0.25ns
param **.servers[*].app.endTime 0.001
param **.servers[*].app.msg2msgGap 1ns
param **.servers[*].app.msgLength 4194304*20B
param **.servers[*].app.msgNum 1
param **.servers[*].gen.startTime 0
param **.servers[0].**.on_throughput_obuf 1
param **.servers[0].app.dstLid 19
param **.servers[0].srcLid 1
param **.servers[100].srcLid 101
param **.servers[101].srcLid 102
param **.servers[102].srcLid 103
param **.servers[103].srcLid 104
param **.servers[104].srcLid 105
param **.servers[105].srcLid 106
param **.servers[106].srcLid 107
param **.servers[107].srcLid 108
param **.servers[108].srcLid 109
param **.servers[109].srcLid 110
param **.servers[10].srcLid 11
param **.servers[110].srcLid 111
param **.servers[111].srcLid 112
param **.servers[112].srcLid 113
param **.servers[113].srcLid 114
param **.servers[114].srcLid 115
param **.servers[115].srcLid 116
param **.servers[116].srcLid 117
param **.servers[117].srcLid 118
param **.servers[118].srcLid 119
param **.servers[119].srcLid 120
param **.servers[11].srcLid 12
param **.servers[120].srcLid 121
param **.servers[121].srcLid 122
param **.servers[122].srcLid 123
param **.servers[123].srcLid 124
param **.servers[124].srcLid 125
param **.servers[125].srcLid 126
param **.servers[126].srcLid 127
param **.servers[127].srcLid 128
param **.servers[128].srcLid 129
param **.servers[129].srcLid 130
param **.servers[12].srcLid 13
param **.servers[130].srcLid 131
param **.servers[131].srcLid 132
param **.servers[132].srcLid 133
param **.servers[133].srcLid 134
param **.servers[134].srcLid 135
param **.servers[135].srcLid 136
param **.servers[136].srcLid 137
param **.servers[137].srcLid 138
param **.servers[138].srcLid 139
param **.servers[139].srcLid 140
param **.servers[13].srcLid 14
param **.servers[140].srcLid 141
param **.servers[141].srcLid 142
param **.servers[142].srcLid 143
param **.servers[143].srcLid 144
param **.servers[144].srcLid 145
param **.servers[145].srcLid 146
param **.servers[146].srcLid 147
param **.servers[147].srcLid 148
param **.servers[148].srcLid 149
param **.servers[149].srcLid 150
param **.servers[14].srcLid 15
param **.servers[150].srcLid 151
param **.servers[151].srcLid 152
param **.servers[152].srcLid 153
param **.servers[153].srcLid 154
param **.servers[154].srcLid 155
param **.servers[155].srcLid 156
param **.servers[156].srcLid 157
param **.servers[157].srcLid 158
param **.servers[158].srcLid 159
param **.servers[159].srcLid 160
param **.servers[15].srcLid 16
param **.servers[160].srcLid 161
param **.servers[161].srcLid 162
param **.servers[162].srcLid 163
param **.servers[163].srcLid 164
param **.servers[164].srcLid 165
param **.servers[165].srcLid 166
param **.servers[166].srcLid 167
param **.servers[167].srcLid 168
param **.servers[168].srcLid 169
param **.servers[169].srcLid 170
param **.servers[16].srcLid 17
param **.servers[170].srcLid 171
param **.servers[171].srcLid 172
param **.servers[172].srcLid 173
param **.servers[173].srcLid 174
param **.servers[174].srcLid 175
param **.servers[175].srcLid 176
param **.servers[176].srcLid 177
param **.servers[177].srcLid 178
param **.servers[178].srcLid 179
param **.servers[179].srcLid 180
param **.servers[17].srcLid 18
param **.servers[180].srcLid 181
param **.servers[181].srcLid 182
param **.servers[182].srcLid 183
param **.servers[183].srcLid 184
param **.servers[184].srcLid 185
param **.servers[185].srcLid 186
param **.servers[186].srcLid 187
param **.servers[187].srcLid 188
param **.servers[188].srcLid 189
param **.servers[189].srcLid 190
param **.servers[18].srcLid 19
param **.servers[190].srcLid 191
param **.servers[191].srcLid 192
param **.servers[192].srcLid 193
param **.servers[193].srcLid 194
param **.servers[194].srcLid 195
param **.servers[195].srcLid 196
param **.servers[196].srcLid 197
param **.servers[197].srcLid 198
param **.servers[198].srcLid 199
param **.servers[199].srcLid 200
param **.servers[19].srcLid 20
param **.servers[1].**.on_throughput_obuf 1
param **.servers[1].app.dstLid 19
param **.servers[1].srcLid 2
param **.servers[200].srcLid 201
param **.servers[201].srcLid 202
param **.servers[202].srcLid 203
param **.servers[203].srcLid 204
param **.servers[204].srcLid 205
param **.servers[205].srcLid 206
param **.servers[206].srcLid 207
param **.servers[207].srcLid 208
param **.servers[208].srcLid 209
param **.servers[209].srcLid 210
param **.servers[20].srcLid 21
param **.servers[210].srcLid 211
param **.servers[211].srcLid 212
param **.servers[212].srcLid 213
param **.servers[213].srcLid 214
param **.servers[214].srcLid 215
param **.servers[215].srcLid 216
param **.servers[216].srcLid 217
param **.servers[217].srcLid 218
param **.servers[218].srcLid 219
param **.servers[219].srcLid 220
param **.servers[21].srcLid 22
param **.servers[220].srcLid 221
param **.servers[221].srcLid 222
param **.servers[222].srcLid 223
param **.servers[223].srcLid 224
param **.servers[224].srcLid 225
param **.servers[225].srcLid 226
param **.servers[226].srcLid 227
param **.servers[227].srcLid 228
param **.servers[228].srcLid 229
param **.servers[229].srcLid 230
param **.servers[22].srcLid 23
param **.servers[230].srcLid 231
param **.servers[231].srcLid 232
param **.servers[232].srcLid 233
param **.servers[233].srcLid 234
param **.servers[234].srcLid 235
param **.servers[235].srcLid 236
param **.servers[236].srcLid 237
param **.servers[237].srcLid 238
param **.servers[238].srcLid 239
param **.servers[239].srcLid 240
param **.servers[23].srcLid 24
param **.servers[240].srcLid 241
param **.servers[241].srcLid 242
param **.servers[242].srcLid 243
param **.servers[243].srcLid 244
param **.servers[244].srcLid 245
param **.servers[245].srcLid 246
param **.servers[246].srcLid 247
param **.servers[247].srcLid 248
param **.servers[248].srcLid 249
param **.servers[249].srcLid 250
param **.servers[24].srcLid 25
param **.servers[250].srcLid 251
param **.servers[251].srcLid 252
param **.servers[252].srcLid 253
param **.servers[253].srcLid 254
param **.servers[254].srcLid 255
param **.servers[255].srcLid 256
param **.servers[256].srcLid 257
param **.servers[257].srcLid 258
param **.servers[258].srcLid 259
param **.servers[259].srcLid 260
param **.servers[25].srcLid 26
param **.servers[260].srcLid 261
param **.servers[261].srcLid 262
param **.servers[262].srcLid 263
param **.servers[263].srcLid 264
param **.servers[264].srcLid 265
param **.servers[265].srcLid 266
param **.servers[266].srcLid 267
param **.servers[267].srcLid 268
param **.servers[268].srcLid 269
param **.servers[269].srcLid 270
param **.servers[26].srcLid 27
param **.servers[270].srcLid 271
param **.servers[271].srcLid 272
param **.servers[272].srcLid 273
param **.servers[273].srcLid 274
param **.servers[274].srcLid 275
param **.servers[275].srcLid 276
param **.servers[276].srcLid 277
param **.servers[277].srcLid 278
param **.servers[278].srcLid 279
param **.servers[279].srcLid 280
param **.servers[27].srcLid 28
param **.servers[280].srcLid 281
param **.servers[281].srcLid 282
param **.servers[282].srcLid 283
param **.servers[283].srcLid 284
param **.servers[284].srcLid 285
param **.servers[285].srcLid 286
param **.servers[286].srcLid 287
param **.servers[287].srcLid 288
param **.servers[288].srcLid 289
param **.servers[289].srcLid 290
param **.servers[28].srcLid 29
param **.servers[290].srcLid 291
param **.servers[291].srcLid 292
param **.servers[292].srcLid 293
param **.servers[293].srcLid 294
param **.servers[294].srcLid 295
param **.servers[295].srcLid 296
param **.servers[296].srcLid 297
param **.servers[297].srcLid 298
param **.servers[298].srcLid 299
param **.servers[299].srcLid 300
param **.servers[29].srcLid 30
param **.servers[2].**.on_throughput_obuf 1
param **.servers[2].app.dstLid 19
param **.servers[2].srcLid 3
param **.servers[300].srcLid 301
param **.servers[301].srcLid 302
param **.servers[302].srcLid 303
param **.servers[303].srcLid 304
param **.servers[304].srcLid 305
param **.servers[305].srcLid 306
param **.servers[306].srcLid 307
param **.servers[307].srcLid 308
param **.servers[308].srcLid 309
param **.servers[309].srcLid 310
param **.servers[30].srcLid 31
param **.servers[310].srcLid 311
param **.servers[311].srcLid 312
param **.servers[312].srcLid 313
param **.servers[313].srcLid 314
param **.servers[314].srcLid 315
param **.servers[315].srcLid 316
param **.servers[316].srcLid 317
param **.servers[317].srcLid 318
param **.servers[318].srcLid 319
param **.servers[319].srcLid 320
param **.servers[31].srcLid 32
param **.servers[320].srcLid 321
param **.servers[321].srcLid 322
param **.servers[322].srcLid 323
param **.servers[323].srcLid 324
param **.servers[324].srcLid 325
param **.servers[325].srcLid 326
param **.servers[326].srcLid 327
param **.servers[327].srcLid 328
param **.servers[328].srcLid 329
param **.servers[329].srcLid 330
param **.servers[32].srcLid 33
param **.servers[330].srcLid 331
param **.servers[331].srcLid 332
param **.servers[332].srcLid 333
param **.servers[333].srcLid 334
param **.servers[334].srcLid 335
param **.servers[335].srcLid 336
param **.servers[336].srcLid 337
param **.servers[337].srcLid 338
param **.servers[338].srcLid 339
param **.servers[339].srcLid 340
param **.servers[33].srcLid 34
param **.servers[340].srcLid 341
param **.servers[341].srcLid 342
param **.servers[342].srcLid 343
param **.servers[343].srcLid 344
param **.servers[344].srcLid 345
param **.servers[345].srcLid 346
param **.servers[346].srcLid 347
param **.servers[347].srcLid 348
param **.servers[348].srcLid 349
param **.servers[349].srcLid 350
param **.servers[34].srcLid 35
param **.servers[350].srcLid 351
param **.servers[351].srcLid 352
param **.servers[352].srcLid 353
param **.servers[353].srcLid 354
param **.servers[354].srcLid 355
param **.servers[355].srcLid 356
param **.servers[356].srcLid 357
param **.servers[357].srcLid 358
param **.servers[358].srcLid 359
param **.servers[359].srcLid 360
param **.servers[35].srcLid 36
param **.servers[360].srcLid 361
param **.servers[361].srcLid 362
param **.servers[362].srcLid 363
param **.servers[363].srcLid 364
param **.servers[364].srcLid 365
param **.servers[365].srcLid 366
param **.servers[366].srcLid 367
param **.servers[367].srcLid 368
param **.servers[368].srcLid 369
param **.servers[369].srcLid 370
param **.servers[36].srcLid 37
param **.servers[370].srcLid 371
param **.servers[371].srcLid 372
param **.servers[372].srcLid 373
param **.servers[373].srcLid 374
param **.servers[374].srcLid 375
param **.servers[375].srcLid 376
param **.servers[376].srcLid 377
param **.servers[377].srcLid 378
param **.servers[378].srcLid 379
param **.servers[379].srcLid 380
param **.servers[37].srcLid 38
param **.servers[380].srcLid 381
param **.servers[381].srcLid 382
param **.servers[382].srcLid 383
param **.servers[383].srcLid 384
param **.servers[384].srcLid 385
param **.servers[385].srcLid 386
param **.servers[386].srcLid 387
param **.servers[387].srcLid 388
param **.servers[388].srcLid 389
param **.servers[389].srcLid 390
param **.servers[38].srcLid 39
param **.servers[390].srcLid 391
param **.servers[391].srcLid 392
param **.servers[392].srcLid 393
param **.servers[393].srcLid 394
param **.servers[394].srcLid 395
param **.servers[395].srcLid 396
param **.servers[396].srcLid 397
param **.servers[397].srcLid 398
param **.servers[398].srcLid 399
param **.servers[399].srcLid 400
param **.servers[39].srcLid 40
param **.servers[3].**.on_throughput_obuf 1
param **.servers[3].app.dstLid 19
param **.servers[3].srcLid 4
param **.servers[400].srcLid 401
param **.servers[401].srcLid 402
param **.servers[402].srcLid 403
param **.servers[403].srcLid 404
param **.servers[404].srcLid 405
param **.servers[405].srcLid 406
param **.servers[406].srcLid 407
param **.servers[407].srcLid 408
param **.servers[408].srcLid 409
param **.servers[409].srcLid 410
param **.servers[40].srcLid 41
param **.servers[410].srcLid 411
param **.servers[411].srcLid 412
param **.servers[412].srcLid 413
param **.servers[413].srcLid 414
param **.servers[414].srcLid 415
param **.servers[415].srcLid 416
param **.servers[416].srcLid 417
param **.servers[417].srcLid 418
param **.servers[418].srcLid 419
param **.servers[419].srcLid 420
param **.servers[41].srcLid 42
param **.servers[420].srcLid 421
param **.servers[421].srcLid 422
param **.servers[422].srcLid 423
param **.servers[423].srcLid 424
param **.servers[424].srcLid 425
param **.servers[425].srcLid 426
param **.servers[426].srcLid 427
param **.servers[427].srcLid 428
param **.servers[428].srcLid 429
param **.servers[429].srcLid 430
param **.servers[42].srcLid 43
param **.servers[430].srcLid 431
param **.servers[431].srcLid 432
param **.servers[432].srcLid 433
param **.servers[433].srcLid 434
param **.servers[434].srcLid 435
param **.servers[435].srcLid 436
param **.servers[436].srcLid 437
param **.servers[437].srcLid 438
param **.servers[438].srcLid 439
param **.servers[439].srcLid 440
param **.servers[43].srcLid 44
param **.servers[440].srcLid 441
param **.servers[441].srcLid 442
param **.servers[442].srcLid 443
param **.servers[443].srcLid 444
param **.servers[444].srcLid 445
param **.servers[445].srcLid 446
param **.servers[446].srcLid 447
param **.servers[447].srcLid 448
param **.servers[448].srcLid 449
param **.servers[449].srcLid 450
param **.servers[44].srcLid 45
param **.servers[450].srcLid 451
param **.servers[451].srcLid 452
param **.servers[452].srcLid 453
param **.servers[453].srcLid 454
param **.servers[454].srcLid 455
param **.servers[455].srcLid 456
param **.servers[456].srcLid 457
param **.servers[457].srcLid 458
param **.servers[458].srcLid 459
param **.servers[459].srcLid 460
param **.servers[45].srcLid 46
param **.servers[460].srcLid 461
param **.servers[461].srcLid 462
param **.servers[462].srcLid 463
param **.servers[463].srcLid 464
param **.servers[464].srcLid 465
param **.servers[465].srcLid 466
param **.servers[466].srcLid 467
param **.servers[467].srcLid 468
param **.servers[468].srcLid 469
param **.servers[469].srcLid 470
param **.servers[46].srcLid 47
param **.servers[470].srcLid 471
param **.servers[471].srcLid 472
param **.servers[472].srcLid 473
param **.servers[473].srcLid 474
param **.servers[474].srcLid 475
param **.servers[475].srcLid 476
param **.servers[476].srcLid 477
param **.servers[477].srcLid 478
param **.servers[478].srcLid 479
param **.servers[479].srcLid 480
param **.servers[47].srcLid 48
param **.servers[480].srcLid 481
param **.servers[481].srcLid 482
param **.servers[482].srcLid 483
param **.servers[483].srcLid 484
param **.servers[484].srcLid 485
param **.servers[485].srcLid 486
param **.servers[486].srcLid 487
param **.servers[487].srcLid 488
param **.servers[488].srcLid 489
param **.servers[489].srcLid 490
param **.servers[48].srcLid 49
param **.servers[490].srcLid 491
param **.servers[491].srcLid 492
param **.servers[492].srcLid 493
param **.servers[493].srcLid 494
param **.servers[494].srcLid 495
param **.servers[495].srcLid 496
param **.servers[496].srcLid 497
param **.servers[497].srcLid 498
param **.servers[498].srcLid 499
param **.servers[499].srcLid 500
param **.servers[49].srcLid 50
param **.servers[4].**.on_throughput_obuf 1
param **.servers[4].app.dstLid 19
param **.servers[4].srcLid 5
param **.servers[500].srcLid 501
param **.servers[501].srcLid 502
param **.servers[502].srcLid 503
param **.servers[503].srcLid 504
param **.servers[504].srcLid 505
param **.servers[505].srcLid 506
param **.servers[506].srcLid 507
param **.servers[507].srcLid 508
param **.servers[508].srcLid 509
param **.servers[509].srcLid 510
param **.servers[50].srcLid 51
param **.servers[510].srcLid 511
param **.servers[511].srcLid 512
param **.servers[512].srcLid 513
param **.servers[513].srcLid 514
param **.servers[514].srcLid 515
param **.servers[515].srcLid 516
param **.servers[516].srcLid 517
param **.servers[517].srcLid 518
param **.servers[518].srcLid 519
param **.servers[519].srcLid 520
param **.servers[51].srcLid 52
param **.servers[520].srcLid 521
param **.servers[521].srcLid 522
param **.servers[522].srcLid 523
param **.servers[523].srcLid 524
param **.servers[524].srcLid 525
param **.servers[525].srcLid 526
param **.servers[526].srcLid 527
param **.servers[527].srcLid 528
param **.servers[528].srcLid 529
param **.servers[529].srcLid 530
param **.servers[52].srcLid 53
param **.servers[530].srcLid 531
param **.servers[531].srcLid 532
param **.servers[532].srcLid 533
param **.servers[533].srcLid 534
param **.servers[534].srcLid 535
param **.servers[535].srcLid 536
param **.servers[536].srcLid 537
param **.servers[537].srcLid 538
param **.servers[538].srcLid 539
param **.servers[539].srcLid 540
param **.servers[53].srcLid 54
param **.servers[540].srcLid 541
param **.servers[541].srcLid 542
param **.servers[542].srcLid 543
param **.servers[543].srcLid 544
param **.servers[544].srcLid 545
param **.servers[545].srcLid 546
param **.servers[546].srcLid 547
param **.servers[547].srcLid 548
param **.servers[548].srcLid 549
param **.servers[549].srcLid 550
param **.servers[54].srcLid 55
param **.servers[550].srcLid 551
param **.servers[551].srcLid 552
param **.servers[552].srcLid 553
param **.servers[553].srcLid 554
param **.servers[554].srcLid 555
param **.servers[555].srcLid 556
param **.servers[556].srcLid 557
param **.servers[557].srcLid 558
param **.servers[558].srcLid 559
param **.servers[559].srcLid 560
param **.servers[55].srcLid 56
param **.servers[560].srcLid 561
param **.servers[561].srcLid 562
param **.servers[562].srcLid 563
param **.servers[563].srcLid 564
param **.servers[564].srcLid 565
param **.servers[565].srcLid 566
param **.servers[566].srcLid 567
param **.servers[567].srcLid 568
param **.servers[568].srcLid 569
param **.servers[569].srcLid 570
param **.servers[56].srcLid 57
param **.servers[570].srcLid 571
param **.servers[571].srcLid 572
param **.servers[572].srcLid 573
param **.servers[573].srcLid 574
param **.servers[574].srcLid 575
param **.servers[575].srcLid 576
param **.servers[576].srcLid 577
param **.servers[577].srcLid 578
param **.servers[578].srcLid 579
param **.servers[579].srcLid 580
param **.servers[57].srcLid 58
param **.servers[580].srcLid 581
param **.servers[581].srcLid 582
param **.servers[582].srcLid 583
param **.servers[583].srcLid 584
param **.servers[584].srcLid 585
param **.servers[585].srcLid 586
param **.servers[586].srcLid 587
param **.servers[587].srcLid 588
param **.servers[588].srcLid 589
param **.servers[589].srcLid 590
param **.servers[58].srcLid 59
param **.servers[590].srcLid 591
param **.servers[591].srcLid 592
param **.servers[592].srcLid 593
param **.servers[593].srcLid 594
param **.servers[594].srcLid 595
param **.servers[595].srcLid 596
param **.servers[596].srcLid 597
param **.servers[597].srcLid 598
param **.servers[598].srcLid 599
param **.servers[599].srcLid 600
param **.servers[59].srcLid 60
param **.servers[5].srcLid 6
param **.servers[600].srcLid 601
param **.servers[601].srcLid 602
param **.servers[602].srcLid 603
param **.servers[603].srcLid 604
param **.servers[604].srcLid 605
param **.servers[605].srcLid 606
param **.servers[606].srcLid 607
param **.servers[607].srcLid 608
param **.servers[608].srcLid 609
param **.servers[609].srcLid 610
param **.servers[60].srcLid 61
param **.servers[610].srcLid 611
param **.servers[611].srcLid 612
param **.servers[612].srcLid 613
param **.servers[613].srcLid 614
param **.servers[614].srcLid 615
param **.servers[615].srcLid 616
param **.servers[616].srcLid 617
param **.servers[617].srcLid 618
param **.servers[618].srcLid 619
param **.servers[619].srcLid 620
param **.servers[61].srcLid 62
param **.servers[620].srcLid 621
param **.servers[621].srcLid 622
param **.servers[622].srcLid 623
param **.servers[623].srcLid 624
param **.servers[624].srcLid 625
param **.servers[625].srcLid 626
param **.servers[626].srcLid 627
param **.servers[627].srcLid 628
param **.servers[628].srcLid 629
param **.servers[629].srcLid 630
param **.servers[62].srcLid 63
param **.servers[630].srcLid 631
param **.servers[631].srcLid 632
param **.servers[632].srcLid 633
param **.servers[633].srcLid 634
param **.servers[634].srcLid 635
param **.servers[635].srcLid 636
param **.servers[636].srcLid 637
param **.servers[637].srcLid 638
param **.servers[638].srcLid 639
param **.servers[639].srcLid 640
param **.servers[63].srcLid 64
param **.servers[640].srcLid 641
param **.servers[641].srcLid 642
param **.servers[642].srcLid 643
param **.servers[643].srcLid 644
param **.servers[644].srcLid 645
param **.servers[645].srcLid 646
param **.servers[646].srcLid 647
param **.servers[647].srcLid 648
param **.servers[64].srcLid 65
param **.servers[65].srcLid 66
param **.servers[66].srcLid 67
param **.servers[67].srcLid 68
param **.servers[68].srcLid 69
param **.servers[69].srcLid 70
param **.servers[6].srcLid 7
param **.servers[70].srcLid 71
param **.servers[71].srcLid 72
param **.servers[72].srcLid 73
param **.servers[73].srcLid 74
param **.servers[74].srcLid 75
param **.servers[75].srcLid 76
param **.servers[76].srcLid 77
param **.servers[77].srcLid 78
param **.servers[78].srcLid 79
param **.servers[79].srcLid 80
param **.servers[7].srcLid 8
param **.servers[80].srcLid 81
param **.servers[81].srcLid 82
param **.servers[82].srcLid 83
param **.servers[83].srcLid 84
param **.servers[84].srcLid 85
param **.servers[85].srcLid 86
param **.servers[86].srcLid 87
param **.servers[87].srcLid 88
param **.servers[88].srcLid 89
param **.servers[89].srcLid 90
param **.servers[8].srcLid 9
param **.servers[90].srcLid 91
param **.servers[91].srcLid 92
param **.servers[92].srcLid 93
param **.servers[93].srcLid 94
param **.servers[94].srcLid 95
param **.servers[95].srcLid 96
param **.servers[96].srcLid 97
param **.servers[97].srcLid 98
param **.servers[98].srcLid 99
param **.servers[99].srcLid 100
param **.servers[9].srcLid 10
param **.sink.hiccupDelay 10000us
param **.sink.hiccupDuration 0.001us
param **.sink.repFirstPackets 0
param **.speed 10Gbps
param **.spine_switches[0]**.fdbIndex 36
param **.spine_switches[10]**.fdbIndex 46
param **.spine_switches[11]**.fdbIndex 47
param **.spine_switches[12]**.fdbIndex 48
param **.spine_switches[13]**.fdbIndex 49
param **.spine_switches[14]**.fdbIndex 50
param **.spine_switches[15]**.fdbIndex 51
param **.spine_switches[16]**.fdbIndex 52
param **.spine_switches[17]**.fdbIndex 53
param **.spine_switches[1]**.fdbIndex 37
param **.spine_switches[2]**.fdbIndex 38
param **.spine_switches[3]**.fdbIndex 39
param **.spine_switches[4]**.fdbIndex 40
param **.spine_switches[5]**.fdbIndex 41
param **.spine_switches[6]**.fdbIndex 42
param **.spine_switches[7]**.fdbIndex 43
param **.spine_switches[8]**.fdbIndex 44
param **.spine_switches[9]**.fdbIndex 45
param **.startStatCol 100us
param **.timeStep_us 25us
param **.vlarb.highVLArbEntries "\"0:1 1:20 2:40 3:80\""
param **.vlarb.lowVLArbEntries "\"0:1 1:20 2:40 3:80\""
param **.vlarb.markrate 1
param **.vlarb.useFCFSRQArb false
param **.vlarb.vlHighLimit 16
param **.vlarb.width 4
param **.width 4
param **H_**.obuf.size 5
param **H_**.vlarb.busWidth 16B
param **H_**.vlarb.coreFreq 1000MHz
param **SW**.vlarb.busWidth 24B
param **SW**.vlarb.coreFreq 1200MHz
param **ibuf.maxBeingSent 1
param **ibuf.totalBufferSize 1000
param **servers[*]**.ibuf.maxStatic* 32

vector 1  fattree_648_network.servers[0].app  msgInfo  ETV
vector 25  fattree_648_network.servers[1].app  msgInfo  ETV
vector 49  fattree_648_network.servers[2].app  msgInfo  ETV
vector 73  fattree_648_network.servers[3].app  msgInfo  ETV
vector 97  fattree_648_network.servers[4].app  msgInfo  ETV
vector 15568  fattree_648_network.leaf_switches[0].port[1].ibuf  inputQueueLength  ETV
vector 31108  fattree_648_network.spine_switches[0].port[0].ibuf  inputQueueLength  ETV
vector 16204  fattree_648_network.leaf_switches[1].port[18].ibuf  inputQueueLength  ETV
vector 15777  fattree_648_network.leaf_switches[0].port[18].vlarb  "StaticFreeCreditsNum in vla"  ETV
vector 439  fattree_648_network.servers[18].sink  "Received FECN"  ETV
vector 440  fattree_648_network.servers[18].sink  "Received victim"  ETV
vector 2  fattree_648_network.servers[0].gen  CCT_Index  ETV
vector 26  fattree_648_network.servers[1].gen  CCT_Index  ETV
vector 50  fattree_648_network.servers[2].gen  CCT_Index  ETV
vector 74  fattree_648_network.servers[3].gen  CCT_Index  ETV
vector 98  fattree_648_network.servers[4].gen  CCT_Index  ETV
vector 13  fattree_648_network.servers[0].obuf  Throughput-obuf  ETV
vector 37  fattree_648_network.servers[1].obuf  Throughput-obuf  ETV
vector 61  fattree_648_network.servers[2].obuf  Throughput-obuf  ETV
vector 85  fattree_648_network.servers[3].obuf  Throughput-obuf  ETV
vector 109  fattree_648_network.servers[4].obuf  Throughput-obuf  ETV
1	1	0	0
2	48053	0.000019553	32
2	80432	0.000037481	32
2	107354	0.000055411	32
2	134236	0.000073339	6.1511001270037
2	166444	0.000091269	6.1504140031747
2	193338	0.000109197	6.1511001270037
2	225474	0.000127125	6.1504140031747
2	252433	0.000145055	6.1511001270037
2	279322	0.000162983	6.1511001270037
2	311515	0.000180911	6.1504140031747
2	338419	0.000198841	6.1511001270037
2	365306	0.000216769	6.1511001270037
2	397514	0.000234699	6.1504140031747
2	424408	0.000252627	6.1511001270037
2	456544	0.000270555	6.1504140031747
2	483504	0.000288485	6.1511001270037
2	510393	0.000306413	6.1511001270037
2	542580	0.000324341	6.1504140031747
2	569489	0.000342271	6.1511001270037
2	596377	0.000360199	6.1511001270037
2	628584	0.000378129	6.1504140031747
2	655473	0.000396057	6.1511001270037
2	687615	0.000413985	6.1504140031747
2	714574	0.000431915	6.1511001270037
2	741461	0.000449843	6.1511001270037
2	773655	0.000467773	6.1504140031747
2	800562	0.000485701	6.1511001270037
2	827451	0.000503629	6.1504140031747
2	859654	0.000521559	6.1511001270037
2	886547	0.000539487	6.1511001270037
2	918698	0.000557415	6.1504140031747
2	945649	0.000575345	6.1511001270037
2	972528	0.000593273	6.1511001270037
2	1004711	0.000611203	6.1504140031747
2	1031595	0.000629131	6.1511001270037
2	1058454	0.000647059	6.1504140031747
2	1090598	0.000664989	6.1511001270037
2	1117450	0.000682917	6.1511001270037
2	1149537	0.000700845	6.1504140031747
2	1176383	0.000718775	6.1511001270037
2	1203212	0.000736703	6.1511001270037
2	1235295	0.000754633	6.1504140031747
2	1262130	0.000772561	6.1511001270037
2	1288960	0.000790489	6.1504140031747
2	1321044	0.000808419	6.1511001270037
2	1347883	0.000826347	6.1511001270037
2	1379948	0.000844275	6.1504140031747
2	1406795	0.000862205	6.1511001270037
2	1433630	0.000880133	6.1511001270037
2	1465702	0.000898063	6.1504140031747
2	1492542	0.000915991	6.1511001270037
2	1524595	0.000933919	6.1504140031747
2	1551455	0.000951849	6.1511001270037
2	1578289	0.000969777	6.1511001270037
2	1610368	0.000987705	6.1504140031747
2	1637204	0.001005635	6.1511001270037
2	1664035	0.001023563	6.1511001270037
2	1696117	0.001041493	6.1504140031747
2	1722948	0.001059421	6.1511001270037
2	1755002	0.001077351	6.1504140031747
2	1781864	0.001095279	6.1511001270037
2	1808696	0.001113207	6.1511001270037
2	1840776	0.001131135	6.1504140031747
2	1867608	0.001149065	6.1511001270037
2	1894443	0.001166993	6.1511001270037
2	1926526	0.001184923	6.1504140031747
2	1953359	0.001202851	6.1511001270037
2	1985409	0.001220779	6.1504140031747
2	2012276	0.001238709	6.1511001270037
2	2039107	0.001256637	6.1511001270037
2	2071182	0.001274565	6.1504140031747
2	2098025	0.001292495	6.1511001270037
2	2124854	0.001310423	6.1511001270037
2	2156937	0.001328353	6.1504140031747
2	2183771	0.001346281	6.1511001270037
2	2215824	0.001364209	6.1504140031747
2	2242687	0.001382139	6.1511001270037
2	2269523	0.001400067	6.1511001270037
2	2301591	0.001417995	6.1504140031747
2	2328434	0.001435925	6.1511001270037
2	2355269	0.001453853	6.1511001270037
2	2387340	0.001471783	6.1504140031747
2	2414183	0.001489711	6.1511001270037
2	2446255	0.001507639	6.1504140031747
2	2473099	0.001525569	6.1511001270037
2	2499929	0.001543497	6.1511001270037
2	2532009	0.001561427	6.1504140031747
2	2558846	0.001579355	6.1511001270037
2	2585677	0.001597283	6.1504140031747
2	2617754	0.001615213	6.1511001270037
2	2644594	0.001633141	6.1511001270037
2	2676666	0.001651069	6.1504140031747
2	2703504	0.001668999	6.1511001270037
2	2730341	0.001686927	6.1511001270037
2	2762422	0.001704857	6.1504140031747
2	2789251	0.001722785	6.1511001270037
2	2816088	0.001740713	6.1504140031747
2	2848170	0.001758643	6.1511001270037
2	2875003	0.001776571	6.1511001270037
2	2907075	0.001794499	6.1504140031747
2	2933920	0.001812429	6.1511001270037
2	2960749	0.001830357	6.1511001270037
2	2992826	0.001848287	6.1504140031747
2	3019666	0.001866215	6.1511001270037
2	3046496	0.001884143	6.1504140031747
2	3078579	0.001902073	6.1511001270037
2	3105413	0.001920001	6.1511001270037
2	3137487	0.001937929	6.1504140031747
2	3164331	0.001955859	6.1511001270037
2	3191161	0.001973787	6.1511001270037
2	3223237	0.001991717	6.1504140031747
2	3250077	0.002009645	6.1511001270037
2	3282130	0.002027573	6.1504140031747
2	3308986	0.002045503	6.1511001270037
2	3335825	0.002063431	6.1511001270037
2	3367899	0.002081359	6.1504140031747
2	3394734	0.002099289	6.1511001270037
2	3421570	0.002117217	6.1511001270037
2	3453646	0.002135147	6.1504140031747
2	3480486	0.002153075	6.1511001270037
2	3512539	0.002171003	6.1504140031747
2	3539395	0.002188933	6.1511001270037
2	3566233	0.002206861	6.1511001270037
2	3598307	0.002224789	6.1504140031747
2	3625143	0.002242719	6.1511001270037
2	3651979	0.002260647	6.1511001270037
2	3684061	0.002278577	6.1504140031747
2	3710889	0.002296505	6.1511001270037
2	3742944	0.002314433	6.1504140031747
2	3769810	0.002332363	6.1511001270037
2	3796640	0.002350291	6.1511001270037
2	3828715	0.002368219	6.1504140031747
2	3855558	0.002386149	6.1511001270037
2	3882387	0.002404077	6.1511001270037
2	3914465	0.002422007	6.1504140031747
2	3941305	0.002439935	6.1511001270037
2	3973358	0.002457863	6.1504140031747
2	4000220	0.002475793	6.1511001270037
2	4027052	0.002493721	6.1511001270037
2	4059126	0.002511649	6.1504140031747
2	4085968	0.002529579	6.1511001270037
2	4112797	0.002547507	6.1511001270037
2	4144879	0.002565437	6.1504140031747
2	4171718	0.002583365	6.1511001270037
2	4203780	0.002601293	6.1504140031747
2	4230629	0.002619223	6.1511001270037
2	4257464	0.002637151	6.1511001270037
2	4289538	0.002655081	6.1504140031747
2	4316375	0.002673009	6.1511001270037
2	4343211	0.002690937	6.1511001270037
2	4375285	0.002708867	6.1511001270037
2	4402124	0.002726795	6.1511001270037
2	4434193	0.002744723	6.1511001270037
2	4460991	0.002762653	6.1511001270037
2	4487793	0.002780581	6.4311001270037
2	4519921	0.002798511	6.7111001270037
2	4546828	0.002816439	6.9911001270037
2	4573699	0.002834367	7.2711001270037
2	4605823	0.002852297	7.5511001270037
2	4632715	0.002870225	7.8311001270037
2	4664807	0.002888153	7.5554747919823
2	4691652	0.002906083	6.1511001270037
2	4718477	0.002924011	6.1511001270037
2	4750559	0.002941941	6.1504140031747
2	4777398	0.002959869	6.1511001270037
2	4809443	0.002977797	6.1504140031747
2	4836309	0.002995727	6.1511001270037
2	4863141	0.003013655	6.1511001270037
2	4895220	0.003031583	6.1511001270037
2	4922056	0.003049513	6.1511001270037
2	4948882	0.003067441	6.1511001270037
2	4980964	0.003085371	6.1511001270037
2	5007761	0.003103299	6.1511001270037
2	5039767	0.003121227	6.4311001270037
2	5066646	0.003139157	6.7111001270037
2	5093589	0.003157085	6.9911001270037
2	5125704	0.003175013	7.2711001270037
2	5152590	0.003192943	7.5511001270037
2	5179482	0.003210871	7.8311001270037
2	5211572	0.003228801	7.5554747919823
2	5238407	0.003246729	6.1511001270037
2	5270465	0.003264657	6.1504140031747
2	5297321	0.003282587	6.1511001270037
2	5324160	0.003300515	6.1511001270037
2	5356235	0.003318443	6.1504140031747
2	5383071	0.003336373	6.1511001270037
2	5409907	0.003354301	6.1511001270037
2	5441983	0.003372231	6.1511001270037
2	5468815	0.003390159	6.1511001270037
2	5500879	0.003408087	6.1511001270037
2	5527694	0.003426017	6.1511001270037
2	5554479	0.003443945	6.1511001270037
2	5586558	0.003461956055	6.4311001270037
2	5613401	0.003479970325	6.7111001270037
2	5640339	0.003497898325	6.9911001270037
2	5672457	0.003515828325	7.2711001270037
2	5699348	0.003533756325	7.5511001270037
2	5731481	0.003551684325	7.8311001270037
2	5758323	0.003569614325	7.5554747919823
2	5785159	0.003587542325	6.1511001270037
2	5817234	0.003605472325	6.1504140031747
2	5844069	0.003623400325	6.1511001270037
2	5870906	0.003641328325	6.1504140031747
2	5902982	0.003659258325	6.1511001270037
2	5929822	0.003677186325	6.1511001270037
2	5961896	0.003695114325	6.1511001270037
2	5988732	0.003713044325	6.1511001270037
2	6015567	0.003730972325	6.1511001270037
2	6047644	0.003748902325	6.1511001270037
2	6074394	0.003766830325	6.1511001270037
2	6106449	0.003784758325	6.4311001270037
2	6133321	0.00380276329	6.7111001270037
2	6160260	0.00382069129	6.9911001270037
2	6192375	0.00383861929	7.2711001270037
2	6219265	0.00385654929	7.5511001270037
2	6246152	0.00387447729	7.8311001270037
2	6278236	0.00389240729	7.5554747919823
2	6305076	0.00391033529	6.1511001270037
2	6337128	0.00392826329	6.1504140031747
2	6363986	0.00394619329	6.1511001270037
2	6390823	0.00396412129	6.1511001270037
2	6422895	0.00398204929	6.1504140031747
2	6449734	0.00399997929	6.1511001270037
2	6476568	0.00401790729	6.1511001270037
2	6508642	0.00403583729	6.1511001270037
2	6535481	0.00405376529	6.1511001270037
2	6567539	0.00407169329	6.1511001270037
2	6594308	0.00408962329	6.1511001270037
2	6621150	0.00410755129	6.4311001270037
2	6653241	0.004125547941	6.7111001270037
2	6680183	0.004143475941	6.9911001270037
2	6707054	0.004161403941	7.2711001270037
2	6739185	0.004179333941	7.5511001270037
2	6766076	0.004197261941	7.8311001270037
2	6798154	0.004215189941	7.5554751270037
2	6825001	0.004233119941	6.1511001270037
2	6851830	0.004251047941	6.1511001270037
2	6883906	0.004268977941	6.1504140031747
2	6910747	0.004286905941	6.1511001270037
2	6937577	0.004304833941	6.1504140031747
2	6969655	0.004322763941	6.1511001270037
2	6996493	0.004340691941	6.1511001270037
2	7028557	0.004358619941	6.1511001270037
2	7055406	0.004376549941	6.1511001270037
2	7082236	0.004394477941	6.1511001270037
2	7114230	0.004412407941	6.1511001270037
2	7141075	0.004430335941	6.4311001270037
2	7173129	0.004448321922	6.7111001270037
2	7200107	0.004466251922	6.9911001270037
2	7226982	0.004484179922	7.2711001270037
2	7259109	0.004502107922	7.5511001270037
2	7286002	0.004520037922	7.8311001270037
2	7312839	0.004537965922	7.5554751270037
2	7344922	0.004555895922	6.1504140031747
2	7371751	0.004573823922	6.1511001270037
2	7403806	0.004591751922	6.1504140031747
2	7430673	0.004609681922	6.1511001270037
2	7457503	0.004627609922	6.1511001270037
2	7489578	0.004645537922	6.1504140031747
2	7516419	0.004663467922	6.1504140031747
2	7543246	0.004681395922	6.1504140031747
2	7575323	0.004699325922	6.1504140031747
2	7602163	0.004717253922	6.1504140031747
2	7634133	0.004735181922	6.1504140031747
2	7661002	0.004753111922	6.4304140031747
2	7687840	0.004771094248	6.7104140031747
2	7720027	0.004789022248	6.9904140031747
2	7746903	0.004806952248	7.2704140031747
2	7773785	0.004824880248	7.5504140031747
2	7805923	0.004842810248	7.8304140031747
2	7832764	0.004860738248	7.5547893381961
2	7864838	0.004878666248	6.1504140031747
2	7891676	0.004896596248	6.1511001270037
2	7918511	0.004914524248	6.1511001270037
2	7950592	0.004932454248	6.1504140031747
2	7977426	0.004950382248	6.1511001270037
2	8004258	0.004968310248	6.1504140031747
2	8036339	0.004986240248	6.1504140031747
2	8063170	0.005004168248	6.1504140031747
2	8095241	0.005022096248	6.1504140031747
2	8122086	0.005040026248	6.1504140031747
2	8148832	0.005057954248	6.1504140031747
2	8180920	0.005075884248	6.4304140031747
2	8207758	0.005093868545	6.7104140031747
2	8234701	0.005111796545	6.9904140031747
2	8266820	0.005129726545	7.2704140031747
2	8293703	0.005147654545	7.5504140031747
2	8325839	0.005165582545	7.8304140031747
2	8352683	0.005183512545	7.5547893381961
2	8379519	0.005201440545	6.1511001270037
2	8411590	0.005219370545	6.1504140031747
2	8438430	0.005237298545	6.1511001270037
2	8470479	0.005255226545	6.1504140031747
2	8497338	0.005273156545	6.1511001270037
2	8524177	0.005291084545	6.1511001270037
2	8556256	0.005309012545	6.1511001270037
2	8583087	0.005326942545	6.1511001270037
2	8609917	0.005344870545	6.1511001270037
2	8641998	0.005362800545	6.1511001270037
2	8668749	0.005380728545	6.1511001270037
2	8700808	0.005398656545	6.4311001270037
2	8727675	0.005416654664	6.7111001270037
2	8754618	0.005434582664	6.9911001270037
2	8786734	0.005452510664	7.2711001270037
2	8813619	0.005470440664	7.5511001270037
2	8840510	0.005488368664	7.8311001270037
2	8872594	0.005506298664	7.5554747919823
2	8899430	0.005524226664	6.1511001270037
2	8931487	0.005542154664	6.1504140031747
2	8958345	0.005560084664	6.1511001270037
2	8985181	0.005578012664	6.1511001270037
2	9017249	0.005595940664	6.1504140031747
2	9044095	0.005613870664	6.1511001270037
2	9070930	0.005631798664	6.1511001270037
2	9102999	0.005649728664	6.1511001270037
2	9129840	0.005667656664	6.1511001270037
2	9161910	0.005685584664	6.1511001270037
2	9188672	0.005703514664	6.1511001270037
2	9215509	0.005721442664	6.4311001270037
2	9247596	0.005739441609	6.7111001270037
2	9274543	0.005757369609	6.9911001270037
2	9301414	0.005775297609	7.2711001270037
2	9333540	0.005793227609	7.5511001270037
2	9360436	0.005811155609	7.8311001270037
2	9392516	0.005829083609	7.5554751270037
2	9419357	0.005847013609	6.1511001270037
2	9446186	0.005864941609	6.1511001270037
2	9478268	0.005882871609	6.1504140031747
2	9505107	0.005900799609	6.1511001270037
2	9537145	0.005918727609	6.1504140031747
2	9564018	0.005936657609	6.1511001270037
2	9590855	0.005954585609	6.1511001270037
2	9622922	0.005972513609	6.1511001270037
2	9649763	0.005990443609	6.1511001270037
2	9676597	0.006008371609	6.1511001270037
2	9708592	0.006026301609	6.1511001270037
2	9735432	0.006044229609	6.4311001270037
2	9767490	0.00606222426	6.7111001270037
2	9794463	0.00608015426	6.9911001270037
2	9821331	0.00609808226	7.2711001270037
2	9853460	0.00611601026	7.5511001270037
2	9880358	0.00613394026	7.8311001270037
2	9907195	0.00615186826	7.5554751270037
2	9939274	0.00616979826	6.1504140031747
2	9966107	0.00618772626	6.1511001270037
2	9998166	0.00620565426	6.1504140031747
2	10025024	0.00622358426	6.1511001270037
2	10051853	0.00624151226	6.1511001270037
2	10083933	0.00625944026	6.1504140031747
2	10110775	0.00627737026	6.1504140031747
2	10137597	0.00629529826	6.1504140031747
2	10169679	0.00631322826	6.1504140031747
2	10196517	0.00633115626	6.1504140031747
2	10228483	0.00634908426	6.1504140031747
2	10255351	0.00636701426	6.4304140031747
2	10282194	0.006385000538	6.7104140031747
2	10314382	0.006402930538	6.9904140031747
2	10341252	0.006420858538	7.2704140031747
2	10368137	0.006438786538	7.5504140031747
2	10400275	0.006456716538	7.8304140031747
2	10427111	0.006474644538	7.5547893381961
2	10459188	0.006492572538	6.1504140031747
2	10486027	0.006510502538	6.1511001270037
2	10512862	0.006528430538	6.1511001270037
2	10544939	0.006546360538	6.1504140031747
2	10571772	0.006564288538	6.1511001270037
2	10598610	0.006582216538	6.1504140031747
2	10630692	0.006600146538	6.1504140031747
2	10657517	0.006618074538	6.1504140031747
2	10689593	0.006636002538	6.1504140031747
2	10716439	0.006653932538	6.1504140031747
2	10743180	0.006671860538	6.1504140031747
2	10775268	0.006689790538	6.4304140031747
2	10802113	0.006707772864	6.7104140031747
2	10834269	0.006725700864	6.9904140031747
2	10861169	0.006743630864	7.2704140031747
2	10888056	0.006761558864	7.5504140031747
2	10920190	0.006779486864	7.8304140031747
2	10947029	0.006797416864	7.5547893381961
2	10973865	0.006815344864	6.1511001270037
2	11005941	0.006833274864	6.1504140031747
2	11032780	0.006851202864	6.1511001270037
2	11064834	0.006869130864	6.1504140031747
2	11091690	0.006887060864	6.1511001270037
2	11118528	0.006904988864	6.1511001270037
2	11150603	0.006922916864	6.1511001270037
2	11177436	0.006940846864	6.1511001270037
2	11204271	0.006958774864	6.1511001270037
2	11236352	0.006976704864	6.1511001270037
2	11263099	0.006994632864	6.1511001270037
2	11295169	0.007012560864	6.4311001270037
2	11322033	0.007030562774	6.7111001270037
2	11348971	0.007048490774	6.9911001270037
2	11381092	0.007066420774	7.2711001270037
2	11407982	0.007084348774	7.5511001270037
2	11434873	0.007102276774	7.8311001270037
2	11466953	0.007120206774	7.5554747919823
2	11493793	0.007138134774	6.1511001270037
2	11525859	0.007156062774	6.1504140031747
2	11552704	0.007173992774	6.1511001270037
2	11579539	0.007191920774	6.1511001270037
2	11611613	0.007209850774	6.1504140031747
2	11638456	0.007227778774	6.1511001270037
2	11665287	0.007245706774	6.1511001270037
2	11697360	0.007263636774	6.1511001270037
2	11724200	0.007281564774	6.1511001270037
2	11756269	0.007299492774	6.1511001270037
2	11783027	0.007317422774	6.1511001270037
2	11809868	0.007335350774	6.4311001270037
2	11841956	0.007353350016	6.7111001270037
2	11868899	0.007371278016	6.9911001270037
2	11900983	0.007389206016	7.2711001270037
2	11927903	0.007407136016	7.5511001270037
2	11954798	0.007425064016	7.8311001270037
2	11986873	0.007442992016	7.5554747919823
2	12013717	0.007460922016	6.1511001270037
2	12040546	0.007478850016	6.1511001270037
2	12072623	0.007496780016	6.1504140031747
2	12099462	0.007514708016	6.1511001270037
2	12131506	0.007532636016	6.1504140031747
2	12158375	0.007550566016	6.1511001270037
2	12185207	0.007568494016	6.1511001270037
2	12217279	0.007586422016	6.1511001270037
2	12244120	0.007604352016	6.1511001270037
2	12270948	0.007622280016	6.1511001270037
2	12302943	0.007640210016	6.1511001270037
2	12329789	0.007658138016	6.4311001270037
2	12361855	0.007676132667	6.7111001270037
2	12388819	0.007694062667	6.9911001270037
2	12415691	0.007711990667	7.2711001270037
2	12447818	0.007729918667	7.5511001270037
2	12474711	0.007747848667	7.8311001270037
2	12501548	0.007765776667	7.5554751270037
2	12533631	0.007783706667	6.1504140031747
2	12560464	0.007801634667	6.1511001270037
2	12592518	0.007819562667	6.1504140031747
2	12619384	0.007837492667	6.1511001270037
2	12646212	0.007855420667	6.1511001270037
2	12678289	0.007873350667	6.1504140031747
2	12705130	0.007891278667	6.1504140031747
2	12731957	0.007909206667	6.1504140031747
2	12764039	0.007927136667	6.1504140031747
2	12790872	0.007945064667	6.1504140031747
2	12822852	0.007962992667	6.1504140031747
2	12849711	0.007980922667	6.4304140031747
2	12876547	0.007998908945	6.7104140031747
2	12908736	0.008016838945	6.9904140031747
2	12935612	0.008034766945	7.2704140031747
2	12962497	0.008052694945	7.5504140031747
2	12994629	0.008070624945	7.8304140031747
2	13021470	0.008088552945	7.5547893381961
2	13053548	0.008106480945	6.1504140031747
2	13080382	0.008124410945	6.1511001270037
2	13107217	0.008142338945	6.1511001270037
2	13139302	0.008160268945	6.1504140031747
2	13166134	0.008178196945	6.1511001270037
2	13198179	0.008196124945	6.1504140031747
2	13225049	0.008214054945	6.1504140031747
2	13251879	0.008231982945	6.1504140031747
2	13283954	0.008249910945	6.1504140031747
2	13310795	0.008267840945	6.1504140031747
2	13337541	0.008285768945	6.1504140031747
2	13369629	0.008303698945	6.4304140031747
2	13396467	0.008321681271	6.7104140031747
2	13428633	0.008339609271	6.9904140031747
2	13455530	0.008357539271	7.2704140031747
2	13482417	0.008375467271	7.5504140031747
2	13514548	0.008393395271	7.8304140031747
2	13541392	0.008411325271	7.5547893381961
2	13568228	0.008429253271	6.1511001270037
2	13600300	0.008447183271	6.1504140031747
2	13627139	0.008465111271	6.1511001270037
2	13659202	0.008483039271	6.1504140031747
2	13686054	0.008500969271	6.1511001270037
2	13712885	0.008518897271	6.1511001270037
2	13744966	0.008536825271	6.1511001270037
2	13771798	0.008554755271	6.1511001270037
2	13798628	0.008572683271	6.1511001270037
2	13830709	0.008590613271	6.1511001270037
2	13857460	0.008608541271	6.1511001270037
2	13889528	0.008626469271	6.4311001270037
2	13916388	0.008644470884	6.7111001270037
2	13943332	0.008662398884	6.9911001270037
2	13975449	0.008680328884	7.2711001270037
2	14002334	0.008698256884	7.5511001270037
2	14029226	0.008716184884	7.8311001270037
2	14061311	0.008734114884	7.5554747919823
2	14088150	0.008752042884	6.1511001270037
2	14120215	0.008769970884	6.1504140031747
2	14147060	0.008787900884	6.1511001270037
2	14173895	0.008805828884	6.1511001270037
2	14205965	0.008823758884	6.1504140031747
2	14232806	0.008841686884	6.1511001270037
2	14259642	0.008859614884	6.1511001270037
2	14291715	0.008877544884	6.1511001270037
2	14318549	0.008895472884	6.1511001270037
2	14350627	0.008913400884	6.1511001270037
2	14377381	0.008931330884	6.1511001270037
2	14404218	0.008949258884	6.4311001270037
2	14436306	0.008967258423	6.7111001270037
2	14463250	0.008985186423	6.9911001270037
2	14495339	0.009003114423	7.2711001270037
2	14522249	0.009021044423	7.5511001270037
2	14549143	0.009038972423	7.8311001270037
2	14581223	0.009056900423	7.5554747919823
2	14608061	0.009074830423	6.1511001270037
2	14634890	0.009092758423	6.1511001270037
2	14666972	0.009110688423	6.1504140031747
2	14693811	0.009128616423	6.1511001270037
2	14725854	0.009146544423	6.1504140031747
2	14752721	0.009164474423	6.1511001270037
2	14779558	0.009182402423	6.1511001270037
2	14811629	0.009200330423	6.1511001270037
2	14838465	0.009218260423	6.1511001270037
2	14865298	0.009236188423	6.1511001270037
2	14897293	0.009254118423	6.1511001270037
2	14924133	0.009272046423	6.4311001270037
2	14956211	0.009290041074	6.7111001270037
2	14983171	0.009307971074	6.9911001270037
2	15010041	0.009325899074	7.2711001270037
2	15042165	0.009343829074	7.5511001270037
2	15069063	0.009361757074	7.8311001270037
2	15095901	0.009379685074	7.5554751270037
2	15127979	0.009397615074	6.1511001270037
2	15154812	0.009415543074	6.1511001270037
2	15186884	0.009433471074	6.1504140031747
2	15213735	0.009451401074	6.1511001270037
2	15240558	0.009469329074	6.1511001270037
2	15272640	0.009487259074	6.1504140031747
2	15299480	0.009505187074	6.1504140031747
2	15326302	0.009523115074	6.1504140031747
2	15358384	0.009541045074	6.1504140031747
2	15385222	0.009558973074	6.1504140031747
2	15417211	0.009576901074	6.1504140031747
2	15444057	0.009594831074	6.4304140031747
2	15470898	0.009612817055	6.7104140031747
2	15503088	0.009630747055	6.9904140031747
2	15529959	0.009648675055	7.2704140031747
2	15562057	0.009666603055	7.5504140031747
2	15588982	0.009684533055	7.8304140031747
2	15615822	0.009702461055	7.5547893381961
2	15647897	0.009720389055	6.1504140031747
2	15674733	0.009738319055	6.1511001270037
2	15701568	0.009756247055	6.1511001270037
2	15733646	0.009774177055	6.1504140031747
2	15760476	0.009792105055	6.1511001270037
2	15792531	0.009810033055	6.1504140031747
2	15819397	0.009827963055	6.1504140031747
2	15846220	0.009845891055	6.1504140031747
2	15878301	0.009863819055	6.1504140031747
2	15905143	0.009881749055	6.1504140031747
2	15931884	0.009899677055	6.1504140031747
2	15963972	0.009917607055	6.4304140031747
2	15990817	0.009935589381	6.7104140031747
2	16022987	0.009953517381	6.9904140031747
2	16049875	0.009971447381	7.2704140031747
2	16076760	0.009989375381	7.5504140031747
2	16110840	0.010007303381	7.8304140031747
2	16137684	0.010025233381	7.5547893381961
2	16164515	0.010043161381	6.1511001270037
2	16196591	0.010061091381	6.1504140031747
2	16223430	0.010079019381	6.1511001270037
2	16255497	0.010096947381	6.1504140031747
2	16282343	0.010114877381	6.1511001270037
2	16309179	0.010132805381	6.1511001270037
2	16341262	0.010150735381	6.1511001270037
2	16368089	0.010168663381	6.1511001270037
2	16394925	0.010186591381	6.1511001270037
2	16427006	0.010204521381	6.1511001270037
2	16453752	0.010222449381	6.1511001270037
2	16485831	0.010240377381	6.4311001270037
2	16512687	0.010258378994	6.7111001270037
2	16539629	0.010276306994	6.9911001270037
2	16571742	0.010294236994	7.2711001270037
2	16598631	0.010312164994	7.5511001270037
2	16625523	0.010330092994	7.8311001270037
2	16657602	0.010348022994	7.5554747919823
2	16684442	0.010365950994	6.1511001270037
2	16716515	0.010383878994	6.1504140031747
2	16743359	0.010401808994	6.1511001270037
2	16770189	0.010419736994	6.1511001270037
2	16802265	0.010437666994	6.1504140031747
2	16829106	0.010455594994	6.1511001270037
2	16861150	0.010473522994	6.1511001270037
2	16888011	0.010491452994	6.1511001270037
2	16914849	0.010509380994	6.1511001270037
2	16946928	0.010527308994	6.1511001270037
2	16973677	0.010545238994	6.1511001270037
2	17000518	0.010563166994	6.4311001270037
2	17032606	0.010581166533	6.7111001270037
2	17059547	0.010599094533	6.9911001270037
2	17091637	0.010617022533	7.2711001270037
2	17118552	0.010634952533	7.5511001270037
2	17145446	0.010652880533	7.8311001270037
2	17177521	0.010670808533	7.5554747919823
2	17204366	0.010688738533	6.1511001270037
2	17231195	0.010706666533	6.1511001270037
2	17263272	0.010724596533	6.1504140031747
2	17290112	0.010742524533	6.1511001270037
2	17322165	0.010760452533	6.1504140031747
2	17349028	0.010778382533	6.1511001270037
2	17375858	0.010796310533	6.1511001270037
2	17407930	0.010814238533	6.1511001270037
2	17434771	0.010832168533	6.1511001270037
2	17461604	0.010850096533	6.1511001270037
2	17493595	0.010868026533	6.1511001270037
2	17520440	0.010885954533	6.4311001270037
2	17552520	0.010903949184	6.7111001270037
2	17579470	0.010921879184	6.9911001270037
2	17606340	0.010939807184	7.2711001270037
2	17638470	0.010957737184	7.5511001270037
2	17665367	0.010975665184	7.8311001270037
2	17692200	0.010993593184	7.5554751270037
2	17724283	0.011011523184	6.1511001270037
2	17751116	0.011029451184	6.1511001270037
2	17783188	0.011047379184	6.1504140031747
2	17810034	0.011065309184	6.1511001270037
2	17836862	0.011083237184	6.1511001270037
2	17868944	0.011101167184	6.1504140031747
2	17895779	0.011119095184	6.1504140031747
2	17922606	0.011137023184	6.1504140031747
2	17954689	0.011154953184	6.1504140031747
2	17981521	0.011172881184	6.1504140031747
2	18013513	0.011190809184	6.1504140031747
2	18040360	0.011208739184	6.4304140031747
2	18067201	0.011226725165	6.7104140031747
2	18099385	0.011244655165	6.9904140031747
2	18126260	0.011262583165	7.2704140031747
2	18158366	0.011280511165	7.5504140031747
2	18185278	0.011298441165	7.8304140031747
2	18212117	0.011316369165	7.5547893381961
2	18244198	0.011334297165	6.1504140031747
2	18271034	0.011352227165	6.1511001270037
2	18297864	0.011370155165	6.1511001270037
2	18329949	0.011388085165	6.1504140031747
2	18356781	0.011406013165	6.1511001270037
2	18388831	0.011423941165	6.1504140031747
2	18415698	0.011441871165	6.1504140031747
2	18442525	0.011459799165	6.1504140031747
2	18474605	0.011477727165	6.1504140031747
2	18501441	0.011495657165	6.1504140031747
2	18528187	0.011513585165	6.1504140031747
2	18560275	0.011531515165	6.4304140031747
2	18587118	0.011549497491	6.7104140031747
2	18619297	0.011567425491	6.9904140031747
2	18646182	0.011585355491	7.2704140031747
2	18673070	0.011603283491	7.5504140031747
2	18705202	0.011621213491	7.8304140031747
2	18732045	0.011639141491	7.5547893381961
2	18758882	0.011657069491	6.1504140031747
2	18790953	0.011674999491	6.1511001270037
2	18817793	0.011692927491	6.1511001270037
2	18849865	0.011710855491	6.1504140031747
2	18876708	0.011728785491	6.1511001270037
2	18903540	0.011746713491	6.1511001270037
2	18935622	0.011764643491	6.1511001270037
2	18962452	0.011782571491	6.1511001270037
2	18989288	0.011800499491	6.1511001270037
2	19021365	0.011818429491	6.1511001270037
2	19048115	0.011836357491	6.1511001270037
2	19080197	0.011854285491	6.4311001270037
2	19107045	0.011872287401	6.7111001270037
2	19133987	0.011890215401	6.9911001270037
2	19166104	0.011908145401	7.2711001270037
2	19192993	0.011926073401	7.5511001270037
2	19225097	0.011944001401	7.8311001270037
2	19251965	0.011961931401	7.5554747919823
2	19278805	0.011979859401	6.1511001270037
2	19310873	0.011997787401	6.1504140031747
2	19337715	0.012015717401	6.1511001270037
2	19364551	0.012033645401	6.1511001270037
2	19396627	0.012051575401	6.1504140031747
2	19423460	0.012069503401	6.1511001270037
2	19455519	0.012087431401	6.1511001270037
2	19482372	0.012105361401	6.1511001270037
2	19509204	0.012123289401	6.1511001270037
2	19541284	0.012141217401	6.1511001270037
2	19568037	0.012159147401	6.1511001270037
2	19594878	0.012177075401	6.4311001270037
2	19626965	0.012195072052	6.7111001270037
2	19653911	0.012213000052	6.9911001270037
2	19686010	0.012230928052	7.2711001270037
2	19712912	0.012248858052	7.5511001270037
2	19739804	0.012266786052	7.8311001270037
2	19771884	0.012284714052	7.5554747919823
2	19798727	0.012302644052	6.1511001270037
2	19825553	0.012320572052	6.1511001270037
2	19857635	0.012338502052	6.1504140031747
2	19884477	0.012356430052	6.1511001270037
2	19916534	0.012374358052	6.1504140031747
2	19943388	0.012392288052	6.1511001270037
2	19970222	0.012410216052	6.1511001270037
2	20002295	0.012428146052	6.1511001270037
2	20029131	0.012446074052	6.1511001270037
2	20055967	0.012464002052	6.1511001270037
2	20087960	0.012481932052	6.1511001270037
2	20114800	0.012499860052	6.4311001270037
2	20146881	0.012517846722	6.7111001270037
2	20173832	0.012535776722	6.9911001270037
2	20200702	0.012553704722	7.2711001270037
2	20232829	0.012571634722	7.5511001270037
2	20259726	0.012589562722	7.8311001270037
2	20291778	0.012607491	7.5554751270037
2	20318650	0.012625420722	6.1511001270037
2	20345477	0.012643348722	6.1511001270037
2	20377556	0.012661276722	6.1504140031747
2	20404398	0.012679206722	6.1511001270037
2	20431222	0.012697134722	6.1511001270037
2	20463305	0.012715064722	6.1504140031747
2	20490143	0.012732992722	6.1504140031747
2	20522185	0.012750920722	6.1504140031747
2	20549050	0.012768850722	6.1504140031747
2	20575886	0.012786778722	6.1504140031747
2	20607879	0.012804706722	6.1504140031747
2	20634721	0.012822636722	6.4304140031747
2	20661560	0.012840631373	6.7104140031747
2	20693749	0.012858561373	6.9904140031747
2	20720624	0.012876489373	7.2704140031747
2	20752732	0.012894417373	7.5504140031747
2	20779645	0.012912347373	7.8304140031747
2	20806483	0.012930275373	7.5547893381961
2	20838558	0.012948203373	6.1504140031747
2	20865394	0.012966133373	6.1511001270037
2	20892229	0.012984061373	6.1511001270037
2	20924312	0.013001991373	6.1504140031747
2	20951139	0.013019919373	6.1511001270037
2	20983199	0.013037847373	6.1504140031747
2	21010061	0.013055777373	6.1504140031747
2	21036883	0.013073705373	6.1504140031747
2	21068964	0.013091635373	6.1504140031747
2	21095804	0.013109563373	6.1504140031747
2	21122551	0.013127491373	6.1504140031747
2	21154634	0.013145421373	6.4304140031747
2	21181481	0.013163403699	6.7104140031747
2	21213662	0.013181331699	6.9904140031747
2	21240538	0.013199261699	7.2704140031747
2	21267422	0.013217189699	7.5504140031747
2	21299560	0.013235119699	7.8304140031747
2	21326401	0.013253047699	7.5547893381961
2	21353233	0.013270975699	6.1504140031747
2	21385309	0.013288905699	6.1511001270037
2	21412148	0.013306833699	6.1511001270037
2	21444219	0.013324761699	6.1504140031747
2	21471058	0.013342691699	6.1511001270037
2	21497894	0.013360619699	6.1511001270037
2	21529976	0.013378549699	6.1511001270037
2	21556801	0.013396477699	6.1511001270037
2	21588850	0.013414405699	6.1511001270037
2	21615720	0.013432335699	6.1511001270037
2	21642470	0.013450263699	6.1511001270037
2	21674551	0.013468191699	6.4311001270037
2	21701401	0.013486195511	6.7111001270037
2	21728342	0.013504123511	6.9911001270037
2	21760452	0.013522053511	7.2711001270037
2	21787341	0.013539981511	7.5511001270037
2	21819454	0.013557909511	7.8311001270037
2	21846318	0.013575839511	7.5554747919823
2	21873151	0.013593767511	6.1511001270037
2	21905224	0.013611695511	6.1504140031747
2	21932066	0.013629625511	6.1511001270037
2	21958896	0.013647553511	6.1511001270037
2	21990972	0.013665483511	6.1504140031747
2	22017812	0.013683411511	6.1511001270037
2	22049875	0.013701339511	6.1511001270037
2	22076719	0.013719269511	6.1511001270037
2	22103555	0.013737197511	6.1511001270037
2	22135636	0.013755125511	6.1511001270037
2	22162383	0.013773055511	6.1511001270037
2	22189224	0.013790983511	6.4311001270037
2	22221316	0.013808980162	6.7111001270037
2	22248261	0.013826908162	6.9911001270037
2	22280363	0.013844836162	7.2711001270037
2	22307261	0.013862766162	7.5511001270037
2	22334153	0.013880694162	7.8311001270037
2	22366229	0.013898624162	7.5554747919823
2	22393071	0.013916552162	6.1511001270037
2	22419901	0.013934480162	6.1504140031747
2	22451983	0.013952410162	6.1511001270037
2	22478817	0.013970338162	6.1511001270037
2	22510883	0.013988266162	6.1504140031747
2	22537733	0.014006196162	6.1511001270037
2	22564561	0.014024124162	6.1511001270037
2	22596636	0.014042054162	6.1511001270037
2	22623475	0.014059982162	6.1511001270037
2	22650311	0.014077910162	6.1511001270037
2	22682299	0.014095840162	6.1511001270037
2	22709144	0.014113768162	6.4311001270037
2	22741231	0.014131754249	6.7111001270037
2	22768172	0.014149684249	6.9911001270037
2	22795043	0.014167612249	7.2711001270037
2	22827174	0.014185542249	7.5511001270037
2	22854070	0.014203470249	7.8311001270037
2	22886116	0.014221398249	7.5554751270037
2	22912987	0.014239328249	6.1511001270037
2	22939819	0.014257256249	6.1511001270037
2	22971898	0.014275184249	6.1504140031747
2	22998735	0.014293114249	6.1511001270037
2	23025562	0.014311042249	6.1511001270037
2	23057646	0.014328972249	6.1504140031747
2	23084479	0.014346900249	6.1504140031747
2	23116525	0.014364828249	6.1504140031747
2	23143392	0.014382758249	6.1504140031747
2	23170227	0.014400686249	6.1504140031747
2	23202215	0.014418614249	6.1504140031747
2	23229062	0.014436544249	6.4304140031747
2	23255902	0.014454537581	6.7104140031747
2	23288085	0.014472467581	6.9904140031747
2	23314960	0.014490395581	7.2704140031747
2	23347072	0.014508323581	7.5504140031747
2	23373985	0.014526253581	7.8304140031747
2	23400817	0.014544181581	7.5547893381961
2	23432898	0.014562111581	6.1504140031747
2	23459733	0.014580039581	6.1511001270037
2	23486564	0.014597967581	6.1504140031747
2	23518653	0.014615897581	6.1511001270037
2	23545485	0.014633825581	6.1511001270037
2	23577558	0.014651753581	6.1504140031747
2	23604403	0.014669683581	6.1504140031747
2	23631229	0.014687611581	6.1504140031747
2	23663310	0.014705541581	6.1504140031747
2	23690144	0.014723469581	6.1504140031747
2	23716893	0.014741397581	6.1504140031747
2	23748981	0.014759327581	6.4304140031747
2	23775822	0.014777313859	6.7104140031747
2	23807999	0.014795241859	6.9904140031747
2	23834880	0.014813171859	7.2704140031747
2	23861764	0.014831099859	7.5504140031747
2	23893898	0.014849029859	7.8304140031747
2	23920739	0.014866957859	7.5547893381961
2	23952789	0.014884885859	6.1504140031747
2	23979655	0.014902815859	6.1511001270037
2	24006488	0.014920743859	6.1511001270037
2	24038568	0.014938671859	6.1504140031747
2	24065403	0.014956601859	6.1511001270037
2	24092235	0.014974529859	6.1511001270037
2	24124317	0.014992459859	6.1511001270037
13	60848	0.000025001	27.54304
13	100499	0.000050001	6.56896
13	140496	0.000075001	6.56896
13	180118	0.000100001	5.9136
13	219532	0.000125001	6.56896
13	259774	0.000150001	5.9136
13	299232	0.000175001	6.56896
13	339079	0.000200001	6.56896
13	378838	0.000225001	5.9136
13	423515	0.000250001	7.22688
13	463760	0.000275001	6.56896
13	503264	0.000300001	6.56896
13	542974	0.000325001	5.9136
13	582884	0.000350001	6.56896
13	622295	0.000375001	5.9136
13	662505	0.000400001	6.56896
13	702000	0.000425001	6.56896
13	741554	0.000450001	5.9136
13	781610	0.000475001	6.56896
13	826283	0.000500001	6.57152
13	866528	0.000525001	7.22432
13	906040	0.000550001	5.9136
13	945498	0.000575001	6.56896
13	985681	0.000600001	5.9136
13	1025036	0.000625001	6.56896
13	1065166	0.000650001	6.56896
13	1104624	0.000675001	5.9136
13	1143993	0.000700001	6.56896
13	1189316	0.000725001	5.91616
13	1228597	0.000750001	6.56896
13	1268679	0.000775001	5.9136
13	1308086	0.000800001	5.9136
13	1347435	0.000825001	6.56896
13	1387526	0.000850001	5.9136
13	1426793	0.000875001	6.56896
13	1466808	0.000900001	5.9136
13	1506280	0.000925001	5.9136
13	1545622	0.000950001	6.56896
13	1590907	0.000975001	5.91616
13	1630185	0.001000001	6.56896
13	1670107	0.001025001	5.9136
13	1709710	0.001050001	5.9136
13	1749049	0.001075001	6.56896
13	1789138	0.001100001	5.9136
13	1828405	0.001125001	5.9136
13	1868140	0.001150001	6.56896
13	1907891	0.001175001	5.9136
13	1947245	0.001200001	6.56896
13	1992530	0.001225001	5.91616
13	2031843	0.001250001	5.9136
13	2071430	0.001275001	6.56896
13	2111328	0.001300001	5.9136
13	2150678	0.001325001	6.56896
13	2190736	0.001350001	5.9136
13	2230073	0.001375001	5.9136
13	2269468	0.001400001	6.56896
13	2309509	0.001425001	5.9136
13	2354087	0.001450001	5.91616
13	2394148	0.001475001	6.56896
13	2433459	0.001500001	5.9136
13	2472810	0.001525001	6.56896
13	2512940	0.001550001	5.9136
13	2552295	0.001575001	5.9136
13	2592318	0.001600001	6.56896
13	2631692	0.001625001	5.9136
13	2670998	0.001650001	6.56896
13	2711130	0.001675001	5.9136
13	2755720	0.001700001	5.91616
13	2795786	0.001725001	6.56896
13	2835114	0.001750001	5.9136
13	2874426	0.001775001	5.9136
13	2914561	0.001800001	6.56896
13	2953908	0.001825001	5.9136
13	2993826	0.001850001	6.56896
13	3033343	0.001875001	5.9136
13	3072611	0.001900001	5.9136
13	3112715	0.001925001	6.56896
13	3157305	0.001950001	5.91616
13	3197128	0.001975001	6.56896
13	3236780	0.002000001	5.9136
13	3276046	0.002025001	5.9136
13	3316175	0.002050001	6.56896
13	3355527	0.002075001	5.9136
13	3395156	0.002100001	5.9136
13	3434958	0.002125001	6.56896
13	3474228	0.002150001	5.9136
13	3519590	0.002175001	6.56896
13	3558917	0.002200001	5.91616
13	3598445	0.002225001	5.9136
13	3638392	0.002250001	6.56896
13	3677659	0.002275001	5.9136
13	3717765	0.002300001	6.56896
13	3757146	0.002325001	5.9136
13	3796503	0.002350001	5.9136
13	3836586	0.002375001	6.56896
13	3875890	0.002400001	5.9136
13	3921207	0.002425001	5.91616
13	3960529	0.002450001	6.56896
13	3999926	0.002475001	5.9136
13	4040013	0.002500001	6.56896
13	4079323	0.002525001	5.9136
13	4119343	0.002550001	5.9136
13	4158762	0.002575001	6.56896
13	4198113	0.002600001	5.9136
13	4238202	0.002625001	6.56896
13	4277508	0.002650001	5.9136
13	4322762	0.002675001	5.91616
13	4362149	0.002700001	6.56896
13	4401543	0.002725001	5.9136
13	4441584	0.002750001	5.9136
13	4480856	0.002775001	6.56896
13	4520783	0.002800001	6.56896
13	4560434	0.002825001	6.56896
13	4599845	0.002850001	7.22432
13	4640021	0.002875001	7.22432
13	4684590	0.002900001	6.57152
13	4724298	0.002925001	5.9136
13	4764011	0.002950001	6.56896
13	4803360	0.002975001	5.9136
13	4843489	0.003000001	5.9136
13	4882793	0.003025001	6.56896
13	4922339	0.003050001	5.9136
13	4962191	0.003075001	6.56896
13	5001462	0.003100001	5.9136
13	5041483	0.003125001	5.9136
13	5086198	0.003150001	7.22688
13	5125695	0.003175001	6.56896
13	5165772	0.003200001	7.22432
13	5205169	0.003225001	7.22432
13	5245274	0.003250001	5.9136
13	5284604	0.003275001	6.56896
13	5323874	0.003300001	5.9136
13	5364009	0.003325001	5.9136
13	5403359	0.003350001	6.56896
13	5443423	0.003375001	5.9136
13	5488026	0.003400001	6.57152
13	5527261	0.003425001	5.9136
13	5567353	0.003450001	5.9136
13	5606611	0.003475001	6.56896
13	5646745	0.003500001	6.56896
13	5686226	0.003525001	7.22432
13	5725656	0.003550001	7.22432
13	5765796	0.003575001	6.56896
13	5805141	0.003600001	5.9136
13	5850279	0.003625001	6.57152
13	5889703	0.003650001	5.9136
13	5929100	0.003675001	6.56896
13	5969232	0.003700001	5.9136
13	6008575	0.003725001	5.9136
13	6048268	0.003750001	6.56896
13	6087850	0.003775001	5.9136
13	6127206	0.003800001	6.56896
13	6167407	0.003825001	6.56896
13	6206815	0.003850001	7.22432
13	6251668	0.003875001	7.22688
13	6291499	0.003900001	6.56896
13	6330893	0.003925001	5.9136
13	6371027	0.003950001	6.56896
13	6410333	0.003975001	5.9136
13	6449781	0.004000001	5.9136
13	6489726	0.004025001	6.56896
13	6529078	0.004050001	5.9136
13	6569107	0.004075001	6.56896
13	6608395	0.004100001	5.9136
13	6652942	0.004125001	6.57152
13	6693161	0.004150001	6.56896
13	6732619	0.004175001	7.22432
13	6772795	0.004200001	7.22432
13	6812136	0.004225001	6.56896
13	6851399	0.004250001	5.9136
13	6891533	0.004275001	5.9136
13	6930881	0.004300001	6.56896
13	6970941	0.004325001	5.9136
13	7015542	0.004350001	6.56896
13	7054823	0.004375001	5.91616
13	7094918	0.004400001	5.9136
13	7134189	0.004425001	6.56896
13	7174125	0.004450001	6.56896
13	7213762	0.004475001	6.56896
13	7253137	0.004500001	7.22432
13	7293334	0.004525001	7.22432
13	7332693	0.004550001	6.56896
13	7372428	0.004575001	5.9136
13	7417285	0.004600001	5.91616
13	7456599	0.004625001	6.56896
13	7496770	0.004650001	5.9136
13	7536118	0.004675001	5.9136
13	7575746	0.004700001	6.56896
13	7615468	0.004725001	5.9136
13	7654746	0.004750001	6.56896
13	7694842	0.004775001	6.56896
13	7734365	0.004800001	6.56896
13	7773878	0.004825001	7.22432
13	7819091	0.004850001	7.22688
13	7858400	0.004875001	5.9136
13	7898576	0.004900001	6.56896
13	7937926	0.004925001	5.9136
13	7977235	0.004950001	6.56896
13	8017321	0.004975001	5.9136
13	8056630	0.005000001	5.9136
13	8096689	0.005025001	6.56896
13	8136020	0.005050001	5.9136
13	8180525	0.005075001	6.56896
13	8220672	0.005100001	6.57152
13	8260117	0.005125001	6.56896
13	8300284	0.005150001	7.22432
13	8339720	0.005175001	7.22432
13	8379026	0.005200001	5.9136
13	8419077	0.005225001	6.56896
13	8458429	0.005250001	5.9136
13	8498399	0.005275001	5.9136
13	8537905	0.005300001	6.56896
13	8582447	0.005325001	5.91616
13	8622499	0.005350001	6.56896
13	8661773	0.005375001	5.9136
13	8701554	0.005400001	5.9136
13	8741231	0.005425001	6.56896
13	8780664	0.005450001	7.22432
13	8820806	0.005475001	7.22432
13	8860220	0.005500001	7.22432
13	8899906	0.005525001	5.9136
13	8939704	0.005550001	5.9136
13	8984167	0.005575001	6.57152
13	9024262	0.005600001	5.9136
13	9063655	0.005625001	6.56896
13	9103191	0.005650001	5.9136
13	9143133	0.005675001	5.9136
13	9182359	0.005700001	6.56896
13	9222315	0.005725001	5.9136
13	9261823	0.005750001	6.56896
13	9301266	0.005775001	7.22432
13	9346655	0.005800001	7.22688
13	9385977	0.005825001	6.56896
13	9426067	0.005850001	6.56896
13	9465459	0.005875001	5.9136
13	9504810	0.005900001	6.56896
13	9544897	0.005925001	5.9136
13	9584206	0.005950001	5.9136
13	9624231	0.005975001	6.56896
13	9663645	0.006000001	5.9136
13	9702911	0.006025001	6.56896
13	9748187	0.006050001	5.91616
13	9787575	0.006075001	6.56896
13	9827700	0.006100001	7.22432
13	9867228	0.006125001	7.22432
13	9906611	0.006150001	6.56896
13	9946699	0.006175001	6.56896
13	9985967	0.006200001	5.9136
13	10025835	0.006225001	5.9136
13	10065446	0.006250001	6.56896
13	10104792	0.006275001	5.9136
13	10150070	0.006300001	6.56896
13	10189388	0.006325001	5.91616
13	10229035	0.006350001	5.9136
13	10268753	0.006375001	6.56896
13	10308173	0.006400001	6.56896
13	10348338	0.006425001	7.22432
13	10387734	0.006450001	7.22432
13	10427309	0.006475001	6.56896
13	10467250	0.006500001	6.56896
13	10511787	0.006525001	5.91616
13	10551849	0.006550001	5.9136
13	10591156	0.006575001	6.56896
13	10630631	0.006600001	5.9136
13	10670671	0.006625001	5.9136
13	10709978	0.006650001	6.56896
13	10749935	0.006675001	5.9136
13	10789303	0.006700001	6.56896
13	10828721	0.006725001	6.56896
13	10868951	0.006750001	7.22432
13	10913524	0.006775001	7.22688
13	10953636	0.006800001	6.56896
13	10992994	0.006825001	5.9136
13	11032348	0.006850001	6.56896
13	11072483	0.006875001	5.9136
13	11111786	0.006900001	6.56896
13	11151806	0.006925001	5.9136
13	11191179	0.006950001	5.9136
13	11230481	0.006975001	6.56896
13	11270511	0.007000001	5.9136
13	11315086	0.007025001	6.57152
13	11355089	0.007050001	6.56896
13	11394712	0.007075001	7.22432
13	11434133	0.007100001	7.22432
13	11474279	0.007125001	6.56896
13	11513586	0.007150001	5.9136
13	11553277	0.007175001	6.56896
13	11592985	0.007200001	5.9136
13	11632339	0.007225001	5.9136
13	11677692	0.007250001	6.57152
13	11717015	0.007275001	5.9136
13	11756558	0.007300001	6.56896
13	11796337	0.007325001	5.9136
13	11835692	0.007350001	6.56896
13	11875843	0.007375001	6.56896
13	11915268	0.007400001	7.22432
13	11954743	0.007425001	7.22432
13	11994791	0.007450001	6.56896
13	12034142	0.007475001	5.9136
13	12079424	0.007500001	5.91616
13	12118739	0.007525001	6.56896
13	12158089	0.007550001	5.9136
13	12198220	0.007575001	6.56896
13	12237572	0.007600001	5.9136
13	12277557	0.007625001	5.9136
13	12316841	0.007650001	6.56896
13	12356200	0.007675001	6.56896
13	12396449	0.007700001	6.56896
13	12435862	0.007725001	7.22432
13	12481200	0.007750001	7.22688
13	12520490	0.007775001	5.9136
13	12559886	0.007800001	6.56896
13	12600021	0.007825001	5.9136
13	12639370	0.007850001	6.56896
13	12679249	0.007875001	5.9136
13	12718765	0.007900001	5.9136
13	12758068	0.007925001	6.56896
13	12798129	0.007950001	5.9136
13	12842664	0.007975001	6.56896
13	12882428	0.008000001	5.91616
13	12922205	0.008025001	7.22432
13	12961623	0.008050001	7.22432
13	13001824	0.008075001	7.22432
13	13041170	0.008100001	5.9136
13	13080764	0.008125001	6.56896
13	13120528	0.008150001	5.9136
13	13159877	0.008175001	5.9136
13	13199944	0.008200001	6.56896
13	13244547	0.008225001	5.91616
13	13284041	0.008250001	6.56896
13	13323911	0.008275001	5.9136
13	13363187	0.008300001	6.56896
13	13403346	0.008325001	5.9136
13	13442801	0.008350001	7.22432
13	13482175	0.008375001	7.22432
13	13522330	0.008400001	7.22432
13	13561680	0.008425001	5.9136
13	13601751	0.008450001	6.56896
13	13646320	0.008475001	5.91616
13	13685630	0.008500001	5.9136
13	13725754	0.008525001	6.56896
13	13765105	0.008550001	5.9136
13	13805167	0.008575001	5.9136
13	13844500	0.008600001	6.56896
13	13883773	0.008625001	5.9136
13	13923872	0.008650001	6.56896
13	13963353	0.008675001	7.22432
13	14008606	0.008700001	7.22688
13	14048115	0.008725001	7.22432
13	14087387	0.008750001	5.9136
13	14127563	0.008775001	5.9136
13	14166910	0.008800001	6.56896
13	14206696	0.008825001	5.9136
13	14246348	0.008850001	6.56896
13	14285652	0.008875001	5.9136
13	14325709	0.008900001	5.9136
13	14365007	0.008925001	6.56896
13	14409841	0.008950001	5.91616
13	14449671	0.008975001	6.56896
13	14489101	0.009000001	7.22432
13	14529309	0.009025001	7.22432
13	14568707	0.009050001	6.56896
13	14608196	0.009075001	6.56896
13	14648138	0.009100001	5.9136
13	14687409	0.009125001	6.56896
13	14727479	0.009150001	5.9136
13	14766894	0.009175001	5.9136
13	14811478	0.009200001	6.57152
13	14851564	0.009225001	5.9136
13	14890791	0.009250001	6.56896
13	14930812	0.009275001	5.9136
13	14970260	0.009300001	6.56896
13	15009696	0.009325001	7.22432
13	15049861	0.009350001	7.22432
13	15089205	0.009375001	6.56896
13	15129274	0.009400001	6.56896
13	15173923	0.009425001	5.91616
13	15213204	0.009450001	5.9136
13	15253292	0.009475001	6.56896
13	15292642	0.009500001	5.9136
13	15332609	0.009525001	6.56896
13	15372121	0.009550001	5.9136
13	15411345	0.009575001	5.9136
13	15451393	0.009600001	6.56896
13	15490810	0.009625001	6.56896
13	15530732	0.009650001	7.22432
13	15575649	0.009675001	7.22688
13	15615043	0.009700001	6.56896
13	15655091	0.009725001	5.9136
13	15694440	0.009750001	6.56896
13	15734122	0.009775001	5.9136
13	15773918	0.009800001	6.56896
13	15813222	0.009825001	5.9136
13	15853230	0.009850001	5.9136
13	15892624	0.009875001	6.56896
13	15932083	0.009900001	5.9136
13	15977222	0.009925001	6.57152
13	16016641	0.009950001	6.56896
13	16056788	0.009975001	7.22432
13	16096213	0.010000001	7.22432
13	16137587	0.010025001	6.56896
13	16177666	0.010050001	5.9136
13	16216974	0.010075001	6.56896
13	16256959	0.010100001	5.9136
13	16296368	0.010125001	5.9136
13	16340951	0.010150001	6.57152
13	16381050	0.010175001	5.9136
13	16420356	0.010200001	6.56896
13	16460335	0.010225001	5.9136
13	16499727	0.010250001	6.56896
13	16539144	0.010275001	6.56896
13	16579334	0.010300001	7.22432
13	16618714	0.010325001	7.22432
13	16658713	0.010350001	6.56896
13	16698180	0.010375001	5.9136
13	16742735	0.010400001	6.57152
13	16782862	0.010425001	5.9136
13	16822174	0.010450001	5.9136
13	16861996	0.010475001	6.56896
13	16901605	0.010500001	5.9136
13	16940915	0.010525001	5.9136
13	16980915	0.010550001	6.56896
13	17020232	0.010575001	6.56896
13	17060076	0.010600001	6.56896
13	17099894	0.010625001	7.22432
13	17144511	0.010650001	7.22688
13	17184660	0.010675001	6.56896
13	17223929	0.010700001	5.9136
13	17263512	0.010725001	5.9136
13	17303416	0.010750001	6.56896
13	17342763	0.010775001	5.9136
13	17382801	0.010800001	6.56896
13	17422114	0.010825001	5.9136
13	17461514	0.010850001	5.9136
13	17506751	0.010875001	6.57152
13	17546028	0.010900001	5.9136
13	17586234	0.010925001	7.22432
13	17625647	0.010950001	7.22432
13	17665071	0.010975001	7.22432
13	17705210	0.011000001	5.9136
13	17744519	0.011025001	6.56896
13	17784546	0.011050001	5.9136
13	17823916	0.011075001	6.56896
13	17863267	0.011100001	5.9136
13	17908641	0.011125001	5.91616
13	17947986	0.011150001	6.56896
13	17987997	0.011175001	5.9136
13	18027264	0.011200001	6.56896
13	18066622	0.011225001	5.9136
13	18106872	0.011250001	7.22432
13	18146240	0.011275001	7.22432
13	18186194	0.011300001	7.22432
13	18225711	0.011325001	5.9136
13	18265065	0.011350001	6.56896
13	18310400	0.011375001	5.91616
13	18349748	0.011400001	5.9136
13	18389483	0.011425001	6.56896
13	18429145	0.011450001	5.9136
13	18468494	0.011475001	6.56896
13	18508570	0.011500001	5.9136
13	18547810	0.011525001	5.9136
13	18587402	0.011550001	6.56896
13	18627384	0.011575001	7.22432
13	18672032	0.011600001	7.22688
13	18712205	0.011625001	7.22432
13	18751553	0.011650001	5.9136
13	18790956	0.011675001	5.9136
13	18830948	0.011700001	6.56896
13	18870302	0.011725001	5.9136
13	18910384	0.011750001	6.56896
13	18949739	0.011775001	5.9136
13	18989045	0.011800001	5.9136
13	19029094	0.011825001	6.56896
13	19073596	0.011850001	5.91616
13	19113713	0.011875001	6.56896
13	19153184	0.011900001	7.22432
13	19192560	0.011925001	7.22432
13	19232757	0.011950001	7.22432
13	19272111	0.011975001	5.9136
13	19312169	0.012000001	5.9136
13	19351542	0.012025001	6.56896
13	19390805	0.012050001	5.9136
13	19430913	0.012075001	5.9136
13	19475488	0.012100001	6.57152
13	19515463	0.012125001	5.9136
13	19554884	0.012150001	6.56896
13	19594156	0.012175001	5.9136
13	19634308	0.012200001	6.56896
13	19673787	0.012225001	7.22432
13	19713592	0.012250001	7.22432
13	19753304	0.012275001	6.56896
13	19792614	0.012300001	6.56896
13	19837979	0.012325001	5.91616
13	19877303	0.012350001	6.56896
13	19916936	0.012375001	5.9136
13	19956740	0.012400001	5.9136
13	19996036	0.012425001	6.56896
13	20036153	0.012450001	5.9136
13	20075438	0.012475001	5.9136
13	20114854	0.012500001	6.56896
13	20154856	0.012525001	6.56896
13	20194291	0.012550001	6.56896
13	20239736	0.012575001	7.88224
13	20279136	0.012600001	6.56896
13	20318448	0.012625001	6.56896
13	20358497	0.012650001	5.9136
13	20397851	0.012675001	5.9136
13	20437934	0.012700001	6.56896
13	20477325	0.012725001	5.9136
13	20516631	0.012750001	6.56896
[...]
31108	21642186	0.013449763699	0
31108	21648905	0.013452325699	0
31108	21649635	0.013454885699	0
31108	21655638	0.013457447699	0
31108	21661607	0.013460009699	0
31108	21662334	0.013462569699	0
31108	21668305	0.013465131699	0
31108	21674261	0.013467693699	0
31108	21675712	0.013470291918	0
31108	21681753	0.013472889511	0
31108	21682483	0.013475449511	0
31108	21688454	0.013478011511	0
31108	21694423	0.013480573511	0
31108	21695150	0.013483133511	0
31108	21701122	0.013485695511	0
31108	21707837	0.013488257511	0
31108	21708596	0.013490817511	0
31108	21714616	0.013493379511	0
31108	21715341	0.013495939511	0
31108	21721312	0.013498501511	0
31108	21727293	0.013501063511	0
31108	21728063	0.013503623511	0
31108	21734751	0.013506185511	0
31108	21740770	0.013508747511	0
31108	21741517	0.013511307511	0
31108	21747495	0.013513869511	0
31108	21748222	0.013516429511	0
31108	21754199	0.013518991511	0
31108	21760171	0.013521553511	0
31108	21761612	0.013524113511	0
31108	21767666	0.013526675511	0
31108	21773635	0.013529237511	0
31108	21774372	0.013531797511	0
31108	21780355	0.013534359511	0
31108	21781082	0.013536919511	0
31108	21787062	0.013539481511	0
31108	21793780	0.013542043511	0
31108	21794522	0.013544603511	0
31108	21800525	0.013547165511	0
31108	21806492	0.013549727511	0
31108	21807240	0.013552287511	0
31108	21813220	0.013554849511	0
31108	21813953	0.013557409511	0
31108	21820638	0.013559971511	0
31108	21826635	0.013562533511	0
31108	21827403	0.013565093511	0
31108	21833374	0.013567655511	0
31108	21839334	0.013570217511	0
31108	21840062	0.013572777511	0
31108	21846039	0.013575339511	0
31108	21847478	0.013577899511	0
31108	21853516	0.013580461511	0
31108	21859443	0.013583023511	0
31108	21860204	0.013585583511	0
31108	21866175	0.013588145511	0
31108	21872132	0.013590707511	0
31108	21872872	0.013593267511	0
31108	21879573	0.013595829511	0
31108	21880297	0.013598389511	0
31108	21886316	0.013600951511	0
31108	21892244	0.013603513511	0
31108	21893012	0.013606073511	0
31108	21898983	0.013608635511	0
31108	21904943	0.013611197511	0
31108	21906386	0.013613757511	0
31108	21912426	0.013616319511	0
31108	21913151	0.013618879511	0
31108	21919122	0.013621441511	0
31108	21925049	0.013624003511	0
31108	21925815	0.013626563511	0
31108	21931787	0.013629125511	0
31108	21938498	0.013631687511	0
31108	21939249	0.013634247511	0
31108	21945232	0.013636809511	0
31108	21945950	0.013639369511	0
31108	21951921	0.013641931511	0
31108	21957849	0.013644493511	0
31108	21958618	0.013647053511	0
31108	21965303	0.013649615511	0
31108	21971323	0.013652177511	0
31108	21972062	0.013654737511	0
31108	21978033	0.013657299511	0
31108	21978758	0.013659859511	0
31108	21984728	0.013662421511	0
31108	21990651	0.013664983511	0
31108	21992132	0.013667543511	0
31108	21998172	0.013670105511	0
31108	22004129	0.013672667511	0
31108	22004873	0.013675227511	0
31108	22010842	0.013677789511	0
31108	22011561	0.013680349511	0
31108	22017533	0.013682911511	0
31108	22024243	0.013685473511	0
31108	22024977	0.013688033511	0
31108	22030978	0.013690595511	0
31108	22036928	0.013693157511	0
31108	22037667	0.013695717511	0
31108	22043638	0.013698279511	0
31108	22044368	0.013700839511	0
31108	22051052	0.013703401511	0
31108	22057083	0.013705963511	0
31108	22057810	0.013708523511	0
31108	22063781	0.013711085511	0
31108	22069742	0.013713647511	0
31108	22070476	0.013716207511	0
31108	22076440	0.013718769511	0
31108	22077879	0.013721329511	0
31108	22083916	0.013723891511	0
31108	22089890	0.013726453511	0
31108	22090616	0.013729013511	0
31108	22096580	0.013731575511	0
31108	22102536	0.013734137511	0
31108	22103276	0.013736697511	0
31108	22109975	0.013739259511	0
31108	22110705	0.013741819511	0
31108	22116721	0.013744381511	0
31108	22122684	0.013746943511	0
31108	22123411	0.013749503511	0
31108	22129387	0.013752065511	0
31108	22135349	0.013754627511	0
31108	22136756	0.013757187511	0
31108	22142789	0.013759749511	0
31108	22143514	0.013762309511	0
31108	22149485	0.013764871511	0
31108	22155454	0.013767433511	0
31108	22156139	0.013769993511	0
31108	22162104	0.013772555511	0
31108	22168820	0.013775117511	0
31108	22169568	0.013777677511	0
31108	22175555	0.013780239511	0
31108	22176280	0.013782799511	0
31108	22182251	0.013785361511	0
31108	22188220	0.013787923511	0
31108	22188946	0.013790483511	0
31108	22195626	0.013793076569	0
31108	22201663	0.013795674162	0
31108	22202394	0.013798234162	0
31108	22208370	0.013800796162	0
31108	22209095	0.013803356162	0
31108	22215066	0.013805918162	0
31108	22221036	0.013808480162	0
31108	22222476	0.013811040162	0
31108	22228523	0.013813602162	0
31108	22234530	0.013816164162	0
31108	22235261	0.013818724162	0
31108	22241231	0.013821286162	0
31108	22241963	0.013823846162	0
31108	22247982	0.013826408162	0
31108	22254695	0.013828970162	0
31108	22255427	0.013831530162	0
31108	22261438	0.013834092162	0
31108	22267405	0.013836654162	0
31108	22268142	0.013839214162	0
31108	22274120	0.013841776162	0
31108	22274848	0.013844336162	0
31108	22281533	0.013846898162	0
31108	22287581	0.013849460162	0
31108	22288320	0.013852020162	0
31108	22294292	0.013854582162	0
31108	22300269	0.013857144162	0
31108	22301002	0.013859704162	0
31108	22306982	0.013862266162	0
31108	22308422	0.013864826162	0
31108	22314467	0.013867388162	0
31108	22320405	0.013869950162	0
31108	22321178	0.013872510162	0
31108	22327162	0.013875072162	0
31108	22333135	0.013877634162	0
31108	22333874	0.013880194162	0
31108	22340572	0.013882756162	0
31108	22341302	0.013885316162	0
31108	22347321	0.013887878162	0
31108	22353250	0.013890440162	0
31108	22354016	0.013893000162	0
31108	22359980	0.013895562162	0
31108	22365946	0.013898124162	0
31108	22367396	0.013900684162	0
31108	22373436	0.013903246162	0
31108	22374160	0.013905806162	0
31108	22380124	0.013908368162	0
31108	22386053	0.013910930162	0
31108	22386820	0.013913490162	0
31108	22392792	0.013916052162	0
31108	22399514	0.013918614162	0
31108	22400245	0.013921174162	0
31108	22406231	0.013923736162	0
31108	22406961	0.013926296162	0
31108	22412932	0.013928858162	0
31108	22418861	0.013931420162	0
31108	22419627	0.013933980162	0
31108	22426303	0.013936542162	0
31108	22432341	0.013939104162	0
31108	22433068	0.013941664162	0
31108	22439039	0.013944226162	0
31108	22439763	0.013946786162	0
31108	22445727	0.013949348162	0
31108	22451663	0.013951910162	0
31108	22453143	0.013954470162	0
31108	22459183	0.013957032162	0
31108	22465151	0.013959594162	0
31108	22465871	0.013962154162	0
31108	22471842	0.013964716162	0
31108	22472567	0.013967276162	0
31108	22478539	0.013969838162	0
31108	22485251	0.013972400162	0
31108	22485975	0.013974960162	0
31108	22491983	0.013977522162	0
31108	22497952	0.013980084162	0
31108	22498679	0.013982644162	0
31108	22504649	0.013985206162	0
31108	22505369	0.013987766162	0
31108	22512053	0.013990328162	0
31108	22518052	0.013992890162	0
31108	22518818	0.013995450162	0
31108	22524789	0.013998012162	0
31108	22530761	0.014000574162	0
31108	22531482	0.014003134162	0
31108	22537454	0.014005696162	0
31108	22538893	0.014008256162	0
31108	22544929	0.014010818162	0
31108	22550898	0.014013380162	0
31108	22551616	0.014015940162	0
31108	22557586	0.014018502162	0
31108	22563555	0.014021064162	0
31108	22564283	0.014023624162	0
31108	22570984	0.014026186162	0
31108	22571707	0.014028746162	0
31108	22577727	0.014031308162	0
31108	22583698	0.014033870162	0
31108	22584423	0.014036430162	0
31108	22590393	0.014038992162	0
31108	22596351	0.014041554162	0
31108	22597796	0.014044114162	0
31108	22603836	0.014046676162	0
31108	22604561	0.014049236162	0
31108	22610536	0.014051798162	0
31108	22616500	0.014054360162	0
31108	22617224	0.014056920162	0
31108	22623196	0.014059482162	0
31108	22629923	0.014062044162	0
31108	22630656	0.014064604162	0
31108	22636640	0.014067166162	0
31108	22637359	0.014069726162	0
31108	22643330	0.014072288162	0
31108	22649301	0.014074850162	0
31108	22650032	0.014077410162	0
31108	22656672	0.014079972162	0
31108	22662703	0.014082534162	0
31108	22663430	0.014085094162	0
31108	22669401	0.014087656162	0
31108	22670126	0.014090216162	0
31108	22676055	0.014092778162	0
31108	22682020	0.014095340162	0
31108	22683459	0.014097900162	0
31108	22689504	0.014100462162	0
31108	22695473	0.014103024162	0
31108	22696200	0.014105584162	0
31108	22702171	0.014108146162	0
31108	22702896	0.014110706162	0
31108	22708866	0.014113268162	0
31108	22715578	0.014115852847	0
31108	22716307	0.014118448249	0
31108	22722310	0.014121010249	0
31108	22728279	0.014123572249	0
31108	22729011	0.014126132249	0
31108	22734982	0.014128694249	0
31108	22740940	0.014131256249	0
31108	22742393	0.014133816249	0
31108	22748439	0.014136378249	0
31108	22749206	0.014138938249	0
31108	22755177	0.014141500249	0
31108	22761146	0.014144062249	0
31108	22761880	0.014146622249	0
31108	22767893	0.014149184249	0
31108	22774613	0.014151746249	0
31108	22775370	0.014154306249	0
31108	22781353	0.014156868249	0
31108	22782085	0.014159428249	0
31108	22788058	0.014161990249	0
31108	22793994	0.014164552249	0
31108	22794764	0.014167112249	0
31108	22801458	0.014169674249	0
31108	22807481	0.014172236249	0
31108	22808227	0.014174796249	0
31108	22814206	0.014177358249	0
31108	22814943	0.014179918249	0
31108	22820916	0.014182480249	0
31108	22826852	0.014185042249	0
31108	22828335	0.014187602249	0
31108	22834383	0.014190164249	0
31108	22840349	0.014192726249	0
31108	22841094	0.014195286249	0
31108	22847073	0.014197848249	0
31108	22847812	0.014200408249	0
31108	22853791	0.014202970249	0
31108	22860514	0.014205532249	0
31108	22861248	0.014208092249	0
31108	22867239	0.014210654249	0
31108	22873196	0.014213216249	0
31108	22873934	0.014215776249	0
31108	22879898	0.014218338249	0
31108	22880624	0.014220898249	0
31108	22887307	0.014223460249	0
31108	22893309	0.014226022249	0
31108	22894076	0.014228582249	0
31108	22900040	0.014231144249	0
31108	22905997	0.014233706249	0
31108	22906736	0.014236266249	0
31108	22912708	0.014238828249	0
31108	22914146	0.014241388249	0
31108	22920179	0.014243950249	0
31108	22926106	0.014246512249	0
31108	22926874	0.014249072249	0
31108	22932850	0.014251634249	0
31108	22938807	0.014254196249	0
31108	22939545	0.014256756249	0
31108	22946245	0.014259318249	0
31108	22946975	0.014261878249	0
31108	22952986	0.014264440249	0
31108	22958914	0.014267002249	0
31108	22959681	0.014269562249	0
31108	22965645	0.014272124249	0
31108	22971603	0.014274686249	0
31108	22973061	0.014277246249	0
31108	22979101	0.014279808249	0
31108	22979825	0.014282368249	0
31108	22985789	0.014284930249	0
31108	22991717	0.014287492249	0
31108	22992485	0.014290052249	0
31108	22998457	0.014292614249	0
31108	23005175	0.014295176249	0
31108	23005916	0.014297736249	0
31108	23011898	0.014300298249	0
31108	23012623	0.014302858249	0
31108	23018594	0.014305420249	0
31108	23024521	0.014307982249	0
31108	23025284	0.014310542249	0
31108	23031973	0.014313104249	0
31108	23037991	0.014315666249	0
31108	23038730	0.014318226249	0
31108	23044702	0.014320788249	0
31108	23045425	0.014323348249	0
31108	23051395	0.014325910249	0
31108	23057324	0.014328472249	0
31108	23058806	0.014331032249	0
31108	23064846	0.014333594249	0
31108	23070805	0.014336156249	0
31108	23071533	0.014338716249	0
31108	23077504	0.014341278249	0
31108	23078229	0.014343838249	0
31108	23084201	0.014346400249	0
31108	23090917	0.014348962249	0
31108	23091649	0.014351522249	0
31108	23097644	0.014354084249	0
31108	23103601	0.014356646249	0
31108	23104340	0.014359206249	0
31108	23110310	0.014361768249	0
31108	23111028	0.014364328249	0
31108	23117712	0.014366890249	0
31108	23123750	0.014369452249	0
31108	23124477	0.014372012249	0
31108	23130448	0.014374574249	0
31108	23136407	0.014377136249	0
31108	23137141	0.014379696249	0
31108	23143113	0.014382258249	0
31108	23144552	0.014384818249	0
31108	23150590	0.014387380249	0
31108	23156556	0.014389942249	0
31108	23157277	0.014392502249	0
31108	23163248	0.014395064249	0
31108	23169205	0.014397626249	0
31108	23169950	0.014400186249	0
31108	23176610	0.014402748249	0
31108	23177333	0.014405308249	0
31108	23183348	0.014407870249	0
31108	23189317	0.014410432249	0
31108	23190044	0.014412992249	0
31108	23195973	0.014415554249	0
31108	23201924	0.014418116249	0
31108	23203377	0.014420676249	0
31108	23209417	0.014423238249	0
31108	23210147	0.014425798249	0
31108	23216118	0.014428360249	0
31108	23222087	0.014430922249	0
31108	23222814	0.014433482249	0
31108	23228785	0.014436044249	0
31108	23235496	0.014438629263	0
31108	23236239	0.014441231581	0
31108	23242226	0.014443793581	0
31108	23242951	0.014446353581	0
31108	23248922	0.014448915581	0
31108	23254895	0.014451477581	0
31108	23255623	0.014454037581	0
31108	23262305	0.014456599581	0
31108	23268342	0.014459161581	0
31108	23269119	0.014461721581	0
31108	23275089	0.014464283581	0
31108	23275814	0.014466843581	0
31108	23281792	0.014469405581	0
31108	23287804	0.014471967581	0
31108	23289245	0.014474527581	0
31108	23295291	0.014477089581	0
31108	23301260	0.014479651581	0
31108	23302002	0.014482211581	0
31108	23307975	0.014484773581	0
31108	23308707	0.014487333581	0
31108	23314681	0.014489895581	0
31108	23321391	0.014492457581	0
31108	23322133	0.014495017581	0
31108	23328144	0.014497579581	0
31108	23334108	0.014500141581	0
31108	23334860	0.014502701581	0
31108	23340832	0.014505263581	0
31108	23341566	0.014507823581	0
31108	23348252	0.014510385581	0
31108	23354257	0.014512947581	0
31108	23355034	0.014515507581	0
31108	23361010	0.014518069581	0
31108	23366970	0.014520631581	0
31108	23367722	0.014523191581	0
31108	23373706	0.014525753581	0
31108	23375146	0.014528313581	0
31108	23381182	0.014530875581	0
31108	23387111	0.014533437581	0
31108	23387878	0.014535997581	0
31108	23393848	0.014538559581	0
31108	23399802	0.014541121581	0
31108	23400538	0.014543681581	0
31108	23407236	0.014546243581	0
31108	23407966	0.014548803581	0
31108	23413989	0.014551365581	0
31108	23419911	0.014553927581	0
31108	23420678	0.014556487581	0
31108	23426649	0.014559049581	0
31108	23432615	0.014561611581	0
31108	23434059	0.014564171581	0
31108	23440093	0.014566733581	0
31108	23440817	0.014569293581	0
31108	23446788	0.014571855581	0
31108	23452717	0.014574417581	0
31108	23453489	0.014576977581	0
31108	23459462	0.014579539581	0
31108	23466175	0.014582101581	0
31108	23466916	0.014584661581	0
31108	23472903	0.014587223581	0
31108	23473628	0.014589783581	0
31108	23479598	0.014592345581	0
31108	23485520	0.014594907581	0
31108	23486288	0.014597467581	0
31108	23492976	0.014600029581	0
31108	23499010	0.014602591581	0
31108	23499740	0.014605151581	0
31108	23505704	0.014607713581	0
31108	23506429	0.014610273581	0
31108	23512402	0.014612835581	0
31108	23518332	0.014615397581	0
31108	23519812	0.014617957581	0
31108	23525845	0.014620519581	0
31108	23531806	0.014623081581	0
31108	23532546	0.014625641581	0
31108	23538517	0.014628203581	0
31108	23539241	0.014630763581	0
31108	23545207	0.014633325581	0
31108	23551918	0.014635887581	0
31108	23552650	0.014638447581	0
31108	23558653	0.014641009581	0
31108	23564618	0.014643571581	0
31108	23565347	0.014646131581	0
31108	23571312	0.014648693581	0
31108	23572043	0.014651253581	0
31108	23578728	0.014653815581	0
31108	23584726	0.014656377581	0
31108	23585491	0.014658937581	0
31108	23591455	0.014661499581	0
31108	23597421	0.014664061581	0
31108	23598152	0.014666621581	0
31108	23604124	0.014669183581	0
31108	23605561	0.014671743581	0
31108	23611590	0.014674305581	0
31108	23617565	0.014676867581	0
31108	23618291	0.014679427581	0
31108	23624262	0.014681989581	0
31108	23630226	0.014684551581	0
31108	23630950	0.014687111581	0
31108	23637648	0.014689673581	0
31108	23638378	0.014692233581	0
31108	23644397	0.014694795581	0
31108	23650365	0.014697357581	0
31108	23651085	0.014699917581	0
31108	23657060	0.014702479581	0
31108	23663026	0.014705041581	0
31108	23664471	0.014707601581	0
31108	23670511	0.014710163581	0
31108	23671233	0.014712723581	0
31108	23677198	0.014715285581	0
31108	23683168	0.014717847581	0
31108	23683894	0.014720407581	0
31108	23689866	0.014722969581	0
31108	23696552	0.014725531581	0
31108	23697282	0.014728091581	0
31108	23703270	0.014730653581	0
31108	23703995	0.014733213581	0
31108	23709966	0.014735775581	0
31108	23715934	0.014738337581	0
31108	23716614	0.014740897581	0
31108	23723296	0.014743459581	0
31108	23729334	0.014746021581	0
31108	23730061	0.014748581581	0
31108	23736037	0.014751143581	0
31108	23736762	0.014753703581	0
31108	23742733	0.014756265581	0
31108	23748704	0.014758827581	0
31108	23750138	0.014761409439	0
31108	23756174	0.014764007859	0
31108	23762143	0.014766569859	0
31108	23762870	0.014769129859	0
31108	23768841	0.014771691859	0
31108	23769566	0.014774251859	0
31108	23775543	0.014776813859	0
31108	23782257	0.014779375859	0
31108	23782994	0.014781935859	0
31108	23789039	0.014784497859	0
31108	23795008	0.014787059859	0
31108	23795735	0.014789619859	0
31108	23801712	0.014792181859	0
31108	23802480	0.014794741859	0
31108	23809165	0.014797303859	0
31108	23815206	0.014799865859	0
31108	23815944	0.014802425859	0
31108	23821922	0.014804987859	0
31108	23827893	0.014807549859	0
31108	23828627	0.014810109859	0
31108	23834601	0.014812671859	0
31108	23836040	0.014815231859	0
31108	23842085	0.014817793859	0
31108	23848064	0.014820355859	0
31108	23848791	0.014822915859	0
31108	23854773	0.014825477859	0
31108	23860708	0.014828039859	0
31108	23861485	0.014830599859	0
31108	23868184	0.014833161859	0
31108	23874202	0.014835723859	0
31108	23874950	0.014838283859	0
31108	23880927	0.014840845859	0
31108	23881660	0.014843405859	0
31108	23887640	0.014845967859	0
31108	23893576	0.014848529859	0
31108	23895064	0.014851089859	0
31108	23901104	0.014853651859	0
31108	23907061	0.014856213859	0
31108	23907800	0.014858773859	0
31108	23913770	0.014861335859	0
31108	23914488	0.014863895859	0
31108	23920460	0.014866457859	0
31108	23927186	0.014869019859	0
31108	23927920	0.014871579859	0
31108	23933906	0.014874141859	0
31108	23939861	0.014876703859	0
31108	23940600	0.014879263859	0
31108	23946571	0.014881825859	0
31108	23947297	0.014884385859	0
31108	23953979	0.014886947859	0
31108	23959972	0.014889509859	0
31108	23960739	0.014892069859	0
31108	23966710	0.014894631859	0
31108	23972667	0.014897193859	0
31108	23973406	0.014899753859	0
31108	23979381	0.014902315859	0
31108	23980814	0.014904875859	0
31108	23986853	0.014907437859	0
31108	23992781	0.014909999859	0
31108	23993549	0.014912559859	0
31108	23999519	0.014915121859	0
31108	24005469	0.014917683859	0
31108	24006209	0.014920243859	0
31108	24012923	0.014922805859	0
31108	24013658	0.014925365859	0
31108	24019660	0.014927927859	0
31108	24025581	0.014930489859	0
31108	24026349	0.014933049859	0
31108	24032320	0.014935611859	0
31108	24038278	0.014938173859	0
31108	24039730	0.014940733859	0
31108	24045763	0.014943295859	0
31108	24046488	0.014945855859	0
31108	24052459	0.014948417859	0
31108	24058392	0.014950979859	0
31108	24059159	0.014953539859	0
31108	24065125	0.014956101859	0
31108	24071839	0.014958663859	0
31108	24072595	0.014961223859	0
31108	24078570	0.014963785859	0
31108	24079295	0.014966345859	0
31108	24085265	0.014968907859	0
31108	24091187	0.014971469859	0
31108	24091956	0.014974029859	0
31108	24098655	0.014976591859	0
31108	24104669	0.014979153859	0
31108	24105406	0.014981713859	0
31108	24111370	0.014984275859	0
31108	24112095	0.014986835859	0
31108	24118066	0.014989397859	0
31108	24124036	0.014991959859	0
31108	24125475	0.014994519859	0
31108	24131508	0.014997081859	0
31108	24137465	0.014999643859	0
