version 2
run General-0-20200212-21:32:34-72044
attr configname General
attr datetime 20200212-21:32:34
attr experiment General
attr inifile demo_final.ini
attr iterationvars ""
attr iterationvarsf ""
attr measurement ""
attr network ib_model.examples.demo.demo_network
attr processid 72044
attr repetition 0
attr replication #0
attr resultdir results
attr runnumber 0
attr seedset 0
param **.flitSize 2048B
param **.width 4
param **.speed 10Gbps
param **.maxVL 0
param **.sink.hiccupDuration 0.001us
param **.sink.hiccupDelay 10000us
param **.sink.repFirstPackets 0
param **.obuf.credMinTime 4.096us
param **H_**.obuf.size 5
param **.ibuf.lossyMode false
param **.ISWDelay 50ns
param **.VSWDelay 50ns
param **SW**.vlarb.coreFreq 1200MHz
param **H_**.vlarb.coreFreq 1000MHz
param **SW**.vlarb.busWidth 24B
param **H_**.vlarb.busWidth 16B
param **.vlarb.vlHighLimit 16
param **.vlarb.highVLArbEntries "\"0:1 1:20 2:40 3:80\""
param **.vlarb.lowVLArbEntries "\"0:1 1:20 2:40 3:80\""
param **.vlarb.useFCFSRQArb false
param **.pktfwd.AdaptMode "\"none\""
param **.pktfwd.LIDBindTime 2us
param **.pktfwd.TQBusy1Thd 20
param **.pktfwd.TQBusy2Thd 40
param **.pktfwd.TQBusy3Thd 80
param **.pktfwd.ARAdaptThd 4
param **.pktfwd.OPSelAlgo "\"greedy\""
param **.pktfwd.GreedyRandSize 3
param **.pktfwd.statRepTime 10us
param **.pktfwd.OPSelOffsetByDLID 0
param **.startStatCol 100us
param **.dstMode "\"param\""
param **.H_1.app.dstLid 3
param **H_2**.dstLid 5
param **H_3**.dstLid 0
param **H_4**.dstLid 5
param **H_5**.dstLid 0
param **H_6**.dstLid 5
param **H_7**.dstLid 5
param **H_8**.dstLid 5
param **H_9**.dstLid 5
param **.H_10.app.dstLid 5
param **.H_1*.app.dstLid 5
param **.app.dstSeqVecFile "\"\""
param **.app.dstSeqVecIdx 0
param **H_1.**.startTime 0
param **H_2.**.startTime 0
param **H_3.**.startTime 0
param **H_4.**.startTime 0.01
param **H_5.**.startTime 0
param **H_6.**.startTime 0.01
param **H_7.**.startTime 0.01
param **H_8.**.startTime 0.01
param **H_9.**.startTime 0.01
param **.H_10.**.startTime 0.01
param **.H_1*.**.startTime 0.01
param **H_1.**.endTime 0.04
param **H_2.**.endTime 0.04
param **H_3.**.endTime 1
param **H_4.**.endTime 0.011
param **H_5.**.endTime 1
param **H_6.**.endTime 0.011
param **H_7.**.endTime 0.011
param **H_8.**.endTime 0.011
param **H_9.**.endTime 0.011
param **.H_10.**.endTime 0.011
param **.H_1*.**.endTime 0.011
param **.msgLenMode "\"param\""
param **.msgMtuLen 2048B
param **.H_1.app.msgNum 1000
param **.H_2.app.msgNum 1000
param **.H_4.app.msgNum 200
param **.H_6.app.msgNum 200
param **.H_7.app.msgNum 200
param **.H_8.app.msgNum 200
param **.H_9.app.msgNum 200
param **.H_10.app.msgNum 200
param **.H_1*.app.msgNum 200
param **.H_3.app.msgNum 1
param **.H_5.app.msgNum 1
param **.H_1.app.msgLength 4194304*20B
param **.H_2.app.msgLength 4194304*20B
param **.H_3.app.msgLength 4194304B
param **.H_4.app.msgLength 4096B
param **.H_5.app.msgLength 4194304B
param **.H_6.app.msgLength 4096B
param **.H_7.app.msgLength 4096B
param **.H_8.app.msgLength 4096B
param **.H_9.app.msgLength 4096B
param **.H_10.app.msgLength 4096B
param **.H_1*.app.msgLength 4096B
param **.msgLenSet "\"4096 4096 4096\""
param **.msgLenProb "\"1 1 1 1\""
param **.H_4.app.msg2msgGap 10000ns
param **.H_6.app.msg2msgGap 10000ns
param **.H_7.app.msg2msgGap 10000ns
param **.H_8.app.msg2msgGap 10000ns
param **.H_9.app.msg2msgGap 10000ns
param **.H_1*.app.msg2msgGap 10000ns
param **.msgSQ 0
param **.maxContPkts 10
param **.popDlyPerByte 0.25ns
param **.genDlyPerByte 0.25ns
param **.maxQueuedPerVL 10
param **.flit2FlitGap 0.001ns
param **.pkt2PktGap 0.001ns
param **.H_1.**.on_throughput_gen 1
param **.H_2.**.on_throughput_gen 1
param **.H_1.**.on_throughput_obuf 1
param **.H_2.**.on_throughput_obuf 1
param **.SW_2.subport[2].**.on_throughput_obuf 1
param **.SW_1.subport[3].**.on_throughput_obuf 1
param **.timeStep_us 49us
param **.on_cc 0
param **.on_newcc 0
param **.CCT_Timer 30us
param **.vlarb.markrate 1
param **ibuf.maxBeingSent 1
param **ibuf.totalBufferSize 1000
param **H_**.ibuf.maxStatic* 32
param **SW**.subport[*].ibuf.maxStatic* 32
param **SW**.obuf.size 5
param **.SW**.fdbsVecFile "\"3h_2s.fdbs\""
param **.SW_1**.fdbIndex 0
param **.SW_2**.fdbIndex 1
param **.pktFwdType "\"Pktfwd\""

vector 0 demo_network.H_1.app msgInfo ETV
vector 1 demo_network.H_2.app msgInfo ETV
vector 2 demo_network.SW_2.subport[1].ibuf inputQueueLength ETV
vector 3 demo_network.SW_1.subport[1].ibuf inputQueueLength ETV
vector 4 demo_network.H_1.gen Throughput ETV
vector 5 demo_network.H_2.gen Throughput ETV
vector 6 demo_network.H_1.obuf Throughput-obuf ETV
vector 7 demo_network.H_2.obuf Throughput-obuf ETV
vector 8 demo_network.SW_1.subport[3].obuf Throughput-obuf ETV
vector 9 demo_network.SW_2.subport[2].obuf Throughput-obuf ETV
vector 10 demo_network.H_4.app msgInfo ETV
vector 11 demo_network.H_6.app msgInfo ETV
vector 12 demo_network.H_7.app msgInfo ETV
vector 13 demo_network.H_8.app msgInfo ETV
vector 14 demo_network.H_9.app msgInfo ETV
vector 15 demo_network.H_10.app msgInfo ETV
vector 16 demo_network.H_11.app msgInfo ETV
vector 17 demo_network.H_12.app msgInfo ETV
vector 18 demo_network.H_13.app msgInfo ETV
vector 19 demo_network.H_14.app msgInfo ETV
vector 20 demo_network.H_15.app msgInfo ETV
vector 21 demo_network.H_16.app msgInfo ETV
vector 22 demo_network.H_17.app msgInfo ETV
vector 23 demo_network.H_18.app msgInfo ETV
vector 24 demo_network.H_19.app msgInfo ETV
vector 25 demo_network.H_5.sink "Latency of each message" ETV
0	1	0	0
1	3	0	0
2	345	0.000000513	0
2	389	0.000001025	0
2	438	0.000001537	0
2	487	0.000002049	0
2	536	0.000002561	0
2	585	0.000003073	0
2	634	0.000003585	0
2	776	0.000004099	0
2	834	0.000004611	0
2	886	0.000005123	0
2	936	0.000005635	0
2	986	0.000006147	0
2	1036	0.000006659	0
2	1086	0.000007171	0
2	1136	0.000007683	0
2	1279	0.000008197	0
2	1337	0.000008709	0
2	1389	0.000009221	0
2	1439	0.000009733	0
2	1490	0.000010245	0
2	1555	0.000010757	0
2	1621	0.000011269	0
2	1689	0.000011781	0
2	1861	0.000012295	0
2	1934	0.000012807	0
2	1996	0.000013319	0
2	2057	0.000013831	1
2	2118	0.000014343	2
2	2179	0.000014855	3
2	2240	0.000015367	4
2	2301	0.000015879	5
2	2466	0.000016393	6
2	2531	0.000016905	8
2	2600	0.000017417	8
2	2661	0.000017929	9
2	2722	0.000018441	10
2	2783	0.000018953	11
2	2844	0.000019465	12
2	2905	0.000019977	13
2	3070	0.000020491	14
2	3135	0.000021003	16
2	3204	0.000021515	16
2	3265	0.000022027	17
2	3326	0.000022539	18
2	3387	0.000023051	19
2	3448	0.000023563	20
2	3509	0.000024075	21
2	3674	0.000024589	22
2	3739	0.000025101	24
2	3808	0.000025613	24
2	3869	0.000026125	25
2	3930	0.000026637	26
2	3991	0.000027149	27
2	4052	0.000027661	28
2	4113	0.000028173	29
2	4278	0.000028687	30
2	4343	0.000029199	32
2	4412	0.000029711	32
2	4473	0.000030223	33
2	4534	0.000030735	34
2	4595	0.000031247	35
2	4656	0.000031759	36
2	4717	0.000032271	37
2	4882	0.000032785	38
2	4947	0.000033297	40
2	5016	0.000033809	40
2	5077	0.000034321	41
2	5138	0.000034833	42
2	5199	0.000035345	43
2	5260	0.000035857	44
2	5321	0.000036369	45
2	5486	0.000036883	46
2	5551	0.000037395	48
2	5620	0.000037907	48
2	5681	0.000038419	49
2	5742	0.000038931	50
2	5803	0.000039443	51
2	5864	0.000039955	52
2	5925	0.000040467	53
2	6090	0.000040981	54
2	6155	0.000041493	56
2	6224	0.000042005	56
2	6285	0.000042517	57
2	6642	0.000045059	55
2	6703	0.000045571	57
2	6772	0.000046083	57
2	6833	0.000046595	58
2	7190	0.000049155	55
2	7251	0.000049667	57
2	7320	0.000050179	57
2	7381	0.000050691	58
2	7729	0.000053251	55
2	7790	0.000053763	57
2	7859	0.000054275	57
2	7920	0.000054787	58
2	8265	0.000057347	55
2	8326	0.000057859	57
2	8395	0.000058371	57
2	8456	0.000058883	58
2	8801	0.000061443	55
2	8862	0.000061955	57
2	8931	0.000062467	57
2	8992	0.000062979	58
2	9337	0.000065539	55
2	9398	0.000066051	57
2	9467	0.000066563	57
2	9528	0.000067075	58
2	9873	0.000069635	55
2	9934	0.000070147	57
2	10003	0.000070659	57
2	10064	0.000071171	58
2	10409	0.000073731	55
2	10470	0.000074243	57
2	10539	0.000074755	57
2	10600	0.000075267	58
2	10945	0.000077827	55
2	11006	0.000078339	57
2	11075	0.000078851	57
2	11136	0.000079363	58
2	11481	0.000081923	55
2	11542	0.000082435	57
2	11611	0.000082947	57
2	11672	0.000083459	58
2	12017	0.000086019	55
2	12078	0.000086531	57
2	12147	0.000087043	57
2	12208	0.000087555	58
2	12553	0.000090115	55
2	12614	0.000090627	57
2	12683	0.000091139	57
2	12744	0.000091651	58
2	13089	0.000094211	55
2	13150	0.000094723	57
2	13219	0.000095235	57
2	13280	0.000095747	58
2	13631	0.000098307	55
2	13692	0.000098819	57
2	13761	0.000099331	57
2	13822	0.000099843	58
2	14167	0.000102403	55
2	14228	0.000102915	57
2	14297	0.000103427	57
2	14358	0.000103939	58
2	14703	0.000106499	55
2	14764	0.000107011	57
2	14833	0.000107523	57
2	14894	0.000108035	58
2	15239	0.000110595	55
2	15300	0.000111107	57
2	15369	0.000111619	57
2	15430	0.000112131	58
2	15775	0.000114691	55
2	15836	0.000115203	57
2	15905	0.000115715	57
2	15966	0.000116227	58
2	16311	0.000118787	55
2	16372	0.000119299	57
2	16441	0.000119811	57
2	16502	0.000120323	58
2	16847	0.000122883	55
2	16908	0.000123395	57
2	16977	0.000123907	57
2	17038	0.000124419	58
2	17383	0.000126979	55
2	17444	0.000127491	57
2	17513	0.000128003	57
2	17574	0.000128515	58
2	17919	0.000131075	55
2	17980	0.000131587	57
2	18049	0.000132099	57
2	18110	0.000132611	58
2	18455	0.000135171	55
2	18516	0.000135683	57
2	18585	0.000136195	57
2	18646	0.000136707	58
2	18991	0.000139267	55
2	19052	0.000139779	57
2	19121	0.000140291	57
2	19182	0.000140803	58
2	19527	0.000143363	55
2	19588	0.000143875	57
2	19657	0.000144387	57
2	19718	0.000144899	58
2	20069	0.000147459	55
2	20130	0.000147971	57
2	20199	0.000148483	57
2	20260	0.000148995	58
2	20605	0.000151555	55
2	20666	0.000152067	57
2	20735	0.000152579	57
2	20796	0.000153091	58
2	21141	0.000155651	55
2	21202	0.000156163	57
2	21271	0.000156675	57
2	21332	0.000157187	58
2	21677	0.000159747	55
2	21738	0.000160259	57
2	21807	0.000160771	57
2	21868	0.000161283	58
2	22213	0.000163843	55
2	22274	0.000164355	57
2	22343	0.000164867	57
2	22404	0.000165379	58
2	22749	0.000167939	55
2	22810	0.000168451	57
2	22879	0.000168963	57
2	22940	0.000169475	58
2	23285	0.000172035	55
2	23346	0.000172547	57
2	23415	0.000173059	57
2	23476	0.000173571	58
2	23821	0.000176131	55
2	23882	0.000176643	57
2	23951	0.000177155	57
2	24012	0.000177667	58
2	24357	0.000180227	55
2	24418	0.000180739	57
2	24487	0.000181251	57
2	24548	0.000181763	58
2	24893	0.000184323	55
2	24954	0.000184835	57
2	25023	0.000185347	57
2	25084	0.000185859	58
2	25429	0.000188419	55
2	25490	0.000188931	57
2	25559	0.000189443	57
2	25620	0.000189955	58
2	25965	0.000192515	55
2	26026	0.000193027	57
2	26095	0.000193539	57
2	26156	0.000194051	58
2	26507	0.000196611	55
2	26568	0.000197123	57
2	26637	0.000197635	57
2	26698	0.000198147	58
2	27043	0.000200707	55
2	27104	0.000201219	57
2	27173	0.000201731	57
2	27234	0.000202243	58
2	27579	0.000204803	55
2	27640	0.000205315	57
2	27709	0.000205827	57
2	27770	0.000206339	58
2	28115	0.000208899	55
2	28176	0.000209411	57
2	28245	0.000209923	57
2	28306	0.000210435	58
2	28651	0.000212995	55
2	28712	0.000213507	57
2	28781	0.000214019	57
2	28842	0.000214531	58
2	29187	0.000217091	55
2	29248	0.000217603	57
2	29317	0.000218115	57
2	29378	0.000218627	58
2	29723	0.000221187	55
2	29784	0.000221699	57
2	29853	0.000222211	57
2	29914	0.000222723	58
2	30259	0.000225283	55
2	30320	0.000225795	57
2	30389	0.000226307	57
2	30450	0.000226819	58
2	30795	0.000229379	55
2	30856	0.000229891	57
2	30925	0.000230403	57
2	30986	0.000230915	58
2	31331	0.000233475	55
2	31392	0.000233987	57
2	31461	0.000234499	57
2	31522	0.000235011	58
2	31867	0.000237571	55
2	31928	0.000238083	57
2	31997	0.000238595	57
2	32058	0.000239107	58
2	32403	0.000241667	55
2	32464	0.000242179	57
2	32533	0.000242691	57
2	32594	0.000243203	58
2	32945	0.000245763	55
2	33006	0.000246275	57
2	33075	0.000246787	57
2	33136	0.000247299	58
2	33481	0.000249859	55
2	33542	0.000250371	57
2	33611	0.000250883	57
2	33672	0.000251395	58
2	34017	0.000253955	55
2	34078	0.000254467	57
2	34147	0.000254979	57
2	34208	0.000255491	58
2	34553	0.000258051	55
2	34614	0.000258563	57
2	34683	0.000259075	57
2	34744	0.000259587	58
2	35089	0.000262147	55
2	35150	0.000262659	57
2	35219	0.000263171	57
2	35280	0.000263683	58
2	35625	0.000266243	55
2	35686	0.000266755	57
2	35755	0.000267267	57
2	35816	0.000267779	58
2	36161	0.000270339	55
2	36222	0.000270851	57
2	36291	0.000271363	57
2	36352	0.000271875	58
2	36697	0.000274435	55
2	36758	0.000274947	57
2	36827	0.000275459	57
2	36888	0.000275971	58
2	37233	0.000278531	55
2	37294	0.000279043	57
2	37363	0.000279555	57
2	37424	0.000280067	58
2	37769	0.000282627	55
2	37830	0.000283139	57
2	37899	0.000283651	57
2	37960	0.000284163	58
2	38305	0.000286723	55
2	38366	0.000287235	57
2	38435	0.000287747	57
2	38496	0.000288259	58
2	38841	0.000290819	55
2	38902	0.000291331	57
2	38971	0.000291843	57
2	39032	0.000292355	58
2	39383	0.000294915	55
2	39444	0.000295427	57
2	39513	0.000295939	57
2	39574	0.000296451	58
2	39919	0.000299011	55
2	39980	0.000299523	57
2	40049	0.000300035	57
2	40110	0.000300547	58
2	40455	0.000303107	55
2	40516	0.000303619	57
2	40585	0.000304131	57
2	40646	0.000304643	58
2	40991	0.000307203	55
2	41052	0.000307715	57
2	41121	0.000308227	57
2	41182	0.000308739	58
2	41527	0.000311299	55
2	41588	0.000311811	57
2	41657	0.000312323	57
2	41718	0.000312835	58
2	42063	0.000315395	55
2	42124	0.000315907	57
2	42193	0.000316419	57
2	42254	0.000316931	58
2	42599	0.000319491	55
2	42660	0.000320003	57
2	42729	0.000320515	57
2	42790	0.000321027	58
2	43135	0.000323587	55
2	43196	0.000324099	57
2	43265	0.000324611	57
2	43326	0.000325123	58
2	43671	0.000327683	55
2	43732	0.000328195	57
2	43801	0.000328707	57
2	43862	0.000329219	58
2	44207	0.000331779	55
2	44268	0.000332291	57
2	44337	0.000332803	57
2	44398	0.000333315	58
2	44743	0.000335875	55
2	44804	0.000336387	57
2	44873	0.000336899	57
2	44934	0.000337411	58
2	45279	0.000339971	55
2	45340	0.000340483	57
2	45409	0.000340995	57
2	45470	0.000341507	58
2	45821	0.000344067	55
2	45882	0.000344579	57
2	45951	0.000345091	57
2	46012	0.000345603	58
2	46357	0.000348163	55
2	46418	0.000348675	57
2	46487	0.000349187	57
2	46548	0.000349699	58
2	46893	0.000352259	55
2	46954	0.000352771	57
2	47023	0.000353283	57
2	47084	0.000353795	58
2	47429	0.000356355	55
2	47490	0.000356867	57
2	47559	0.000357379	57
2	47620	0.000357891	58
2	47965	0.000360451	55
2	48026	0.000360963	57
2	48095	0.000361475	57
2	48156	0.000361987	58
2	48501	0.000364547	55
2	48562	0.000365059	57
2	48631	0.000365571	57
2	48692	0.000366083	58
2	49037	0.000368643	55
2	49098	0.000369155	57
2	49167	0.000369667	57
2	49228	0.000370179	58
2	49573	0.000372739	55
2	49634	0.000373251	57
2	49703	0.000373763	57
2	49764	0.000374275	58
2	50109	0.000376835	55
2	50170	0.000377347	57
2	50239	0.000377859	57
2	50300	0.000378371	58
2	50645	0.000380931	55
2	50706	0.000381443	57
2	50775	0.000381955	57
2	50836	0.000382467	58
2	51181	0.000385027	55
2	51242	0.000385539	57
2	51311	0.000386051	57
2	51372	0.000386563	58
2	51717	0.000389123	55
2	51778	0.000389635	57
2	51847	0.000390147	57
2	51908	0.000390659	58
2	52259	0.000393219	55
2	52320	0.000393731	57
2	52389	0.000394243	57
2	52450	0.000394755	58
2	52795	0.000397315	55
2	52856	0.000397827	57
2	52925	0.000398339	57
2	52986	0.000398851	58
2	53331	0.000401411	55
2	53392	0.000401923	57
2	53461	0.000402435	57
2	53522	0.000402947	58
2	53867	0.000405507	55
2	53928	0.000406019	57
2	53997	0.000406531	57
2	54058	0.000407043	58
2	54403	0.000409603	55
2	54464	0.000410115	57
2	54533	0.000410627	57
2	54594	0.000411139	58
2	54939	0.000413699	55
2	55000	0.000414211	57
2	55069	0.000414723	57
2	55130	0.000415235	58
2	55475	0.000417795	55
2	55536	0.000418307	57
2	55605	0.000418819	57
2	55666	0.000419331	58
2	56011	0.000421891	55
2	56072	0.000422403	57
2	56141	0.000422915	57
2	56202	0.000423427	58
2	56547	0.000425987	55
2	56608	0.000426499	57
2	56677	0.000427011	57
2	56738	0.000427523	58
2	57083	0.000430083	55
2	57144	0.000430595	57
2	57213	0.000431107	57
2	57274	0.000431619	58
2	57619	0.000434179	55
2	57680	0.000434691	57
2	57749	0.000435203	57
2	57810	0.000435715	58
2	58155	0.000438275	55
2	58216	0.000438787	57
2	58285	0.000439299	57
2	58346	0.000439811	58
2	58697	0.000442371	55
2	58758	0.000442883	57
2	58827	0.000443395	57
2	58888	0.000443907	58
2	59233	0.000446467	55
2	59294	0.000446979	57
2	59363	0.000447491	57
2	59424	0.000448003	58
2	59769	0.000450563	55
2	59830	0.000451075	57
2	59899	0.000451587	57
2	59960	0.000452099	58
2	60305	0.000454659	55
2	60366	0.000455171	57
2	60435	0.000455683	57
2	60496	0.000456195	58
2	60841	0.000458755	55
2	60902	0.000459267	57
2	60971	0.000459779	57
2	61032	0.000460291	58
2	61377	0.000462851	55
2	61438	0.000463363	57
2	61507	0.000463875	57
2	61568	0.000464387	58
2	61913	0.000466947	55
2	61974	0.000467459	57
2	62043	0.000467971	57
2	62104	0.000468483	58
2	62449	0.000471043	55
2	62510	0.000471555	57
2	62579	0.000472067	57
2	62640	0.000472579	58
2	62985	0.000475139	55
2	63046	0.000475651	57
2	63115	0.000476163	57
2	63176	0.000476675	58
2	63521	0.000479235	55
2	63582	0.000479747	57
2	63651	0.000480259	57
2	63712	0.000480771	58
2	64057	0.000483331	55
2	64118	0.000483843	57
2	64187	0.000484355	57
2	64248	0.000484867	58
2	64593	0.000487427	55
2	64654	0.000487939	57
2	64723	0.000488451	57
2	64784	0.000488963	58
2	65135	0.000491523	55
2	65196	0.000492035	57
2	65265	0.000492547	57
2	65326	0.000493059	58
2	65671	0.000495619	55
2	65732	0.000496131	57
2	65801	0.000496643	57
2	65862	0.000497155	58
2	66207	0.000499715	55
2	66268	0.000500227	57
2	66337	0.000500739	57
2	66398	0.000501251	58
2	66743	0.000503811	55
2	66804	0.000504323	57
2	66873	0.000504835	57
2	66934	0.000505347	58
2	67279	0.000507907	55
2	67340	0.000508419	57
2	67409	0.000508931	57
2	67470	0.000509443	58
2	67815	0.000512003	55
2	67876	0.000512515	57
2	67945	0.000513027	57
2	68006	0.000513539	58
2	68351	0.000516099	55
2	68412	0.000516611	57
2	68481	0.000517123	57
2	68542	0.000517635	58
2	68887	0.000520195	55
2	68948	0.000520707	57
2	69017	0.000521219	57
2	69078	0.000521731	58
2	69423	0.000524291	55
2	69484	0.000524803	57
2	69553	0.000525315	57
2	69614	0.000525827	58
2	69959	0.000528387	55
2	70020	0.000528899	57
2	70089	0.000529411	57
2	70150	0.000529923	58
2	70495	0.000532483	55
2	70556	0.000532995	57
2	70625	0.000533507	57
2	70686	0.000534019	58
2	71031	0.000536579	55
2	71092	0.000537091	57
2	71161	0.000537603	57
2	71222	0.000538115	58
2	71573	0.000540675	55
2	71634	0.000541187	57
2	71703	0.000541699	57
2	71764	0.000542211	58
2	72109	0.000544771	55
2	72170	0.000545283	57
2	72239	0.000545795	57
2	72300	0.000546307	58
2	72645	0.000548867	55
2	72706	0.000549379	57
2	72775	0.000549891	57
2	72836	0.000550403	58
2	73181	0.000552963	55
2	73242	0.000553475	57
2	73311	0.000553987	57
2	73372	0.000554499	58
2	73717	0.000557059	55
2	73778	0.000557571	57
2	73846	0.000558083	57
2	73908	0.000558595	58
2	74253	0.000561155	55
2	74314	0.000561667	57
2	74382	0.000562179	57
2	74444	0.000562691	58
2	74789	0.000565251	55
2	74850	0.000565763	57
2	74918	0.000566275	57
2	74980	0.000566787	58
2	75325	0.000569347	55
2	75386	0.000569859	57
2	75454	0.000570371	57
2	75516	0.000570883	58
2	75861	0.000573443	55
2	75922	0.000573955	57
2	75990	0.000574467	57
2	76052	0.000574979	58
2	76397	0.000577539	55
2	76458	0.000578051	57
2	76526	0.000578563	57
2	76588	0.000579075	58
2	76933	0.000581635	55
2	76994	0.000582147	57
2	77062	0.000582659	57
2	77124	0.000583171	58
2	77469	0.000585731	55
2	77530	0.000586243	57
2	77598	0.000586755	57
2	77660	0.000587267	58
2	78011	0.000589827	55
2	78072	0.000590339	57
2	78140	0.000590851	57
2	78202	0.000591363	58
2	78547	0.000593923	55
2	78608	0.000594435	57
2	78676	0.000594947	57
2	78738	0.000595459	58
2	79083	0.000598019	55
2	79144	0.000598531	57
2	79212	0.000599043	57
2	79274	0.000599555	58
2	79619	0.000602115	55
2	79679	0.000602627	57
2	79747	0.000603139	57
2	79809	0.000603651	58
2	80154	0.000606211	55
2	80215	0.000606723	57
2	80283	0.000607235	57
2	80345	0.000607747	58
2	80690	0.000610307	55
2	80751	0.000610819	57
2	80819	0.000611331	57
2	80881	0.000611843	58
2	81226	0.000614403	55
2	81287	0.000614915	57
2	81355	0.000615427	57
2	81417	0.000615939	58
2	81762	0.000618499	55
2	81823	0.000619011	57
2	81891	0.000619523	57
2	81953	0.000620035	58
2	82298	0.000622595	55
2	82359	0.000623107	57
2	82427	0.000623619	57
2	82489	0.000624131	58
2	82834	0.000626691	55
2	82895	0.000627203	57
2	82963	0.000627715	57
2	83025	0.000628227	58
2	83370	0.000630787	55
2	83431	0.000631299	57
2	83499	0.000631811	57
2	83561	0.000632323	58
2	83906	0.000634883	55
2	83967	0.000635395	57
2	84035	0.000635907	57
2	84097	0.000636419	58
2	84448	0.000638979	55
2	84509	0.000639491	57
2	84577	0.000640003	57
2	84639	0.000640515	58
2	84985	0.000643075	55
2	85040	0.000643587	57
2	85109	0.000644099	57
2	85171	0.000644611	58
2	85518	0.000647171	55
2	85576	0.000647683	57
2	85643	0.000648195	57
2	85704	0.000648707	58
2	86049	0.000651267	55
2	86110	0.000651779	57
2	86178	0.000652291	57
2	86240	0.000652803	58
2	86585	0.000655363	55
2	86646	0.000655875	57
2	86714	0.000656387	57
2	86776	0.000656899	58
2	87121	0.000659459	55
2	87182	0.000659971	57
2	87250	0.000660483	57
2	87312	0.000660995	58
2	87657	0.000663555	55
2	87718	0.000664067	57
2	87786	0.000664579	57
2	87848	0.000665091	58
2	88193	0.000667651	55
2	88254	0.000668163	57
2	88322	0.000668675	57
2	88384	0.000669187	58
2	88729	0.000671747	55
2	88790	0.000672259	57
2	88858	0.000672771	57
2	88920	0.000673283	58
2	89265	0.000675843	55
2	89326	0.000676355	57
2	89394	0.000676867	57
2	89456	0.000677379	58
2	89801	0.000679939	55
2	89862	0.000680451	57
2	89930	0.000680963	57
2	89992	0.000681475	58
2	90337	0.000684035	55
2	90398	0.000684547	57
2	90466	0.000685059	57
2	90528	0.000685571	58
2	90879	0.000688131	55
2	90940	0.000688643	57
2	91008	0.000689155	57
2	91070	0.000689667	58
2	91415	0.000692227	55
2	91476	0.000692739	57
2	91544	0.000693251	57
2	91606	0.000693763	58
2	91951	0.000696323	55
2	92012	0.000696835	57
2	92080	0.000697347	57
2	92142	0.000697859	58
2	92487	0.000700419	55
2	92548	0.000700931	57
2	92616	0.000701443	57
2	92678	0.000701955	58
2	93023	0.000704515	55
2	93084	0.000705027	57
2	93144	0.000705539	58
2	93213	0.000706051	58
2	93558	0.000708611	55
2	93620	0.000709123	57
2	93680	0.000709635	58
2	93749	0.000710147	58
2	94094	0.000712707	55
2	94156	0.000713219	57
2	94216	0.000713731	58
2	94285	0.000714243	58
2	94630	0.000716803	55
2	94692	0.000717315	57
2	94752	0.000717827	58
2	94821	0.000718339	58
2	95166	0.000720899	55
2	95228	0.000721411	57
2	95288	0.000721923	58
2	95357	0.000722435	58
2	95702	0.000724995	55
2	95764	0.000725507	57
2	95824	0.000726019	58
2	95893	0.000726531	58
2	96238	0.000729091	55
2	96300	0.000729603	57
2	96360	0.000730115	58
2	96429	0.000730627	58
2	96774	0.000733187	55
2	96836	0.000733699	57
2	96896	0.000734211	58
2	96965	0.000734723	58
2	97316	0.000737283	55
2	97378	0.000737795	57
2	97438	0.000738307	58
2	97507	0.000738819	58
2	97852	0.000741379	55
2	97914	0.000741891	57
2	97974	0.000742403	58
2	98043	0.000742915	58
2	98388	0.000745475	55
2	98430	0.000745987	57
2	98490	0.000746499	58
2	98559	0.000747011	58
2	98905	0.000749571	55
2	98965	0.000750083	57
2	99025	0.000750595	58
2	99094	0.000751107	58
2	99439	0.000753667	55
2	99501	0.000754179	57
2	99561	0.000754691	58
2	99630	0.000755203	58
2	99975	0.000757763	55
2	100037	0.000758275	57
2	100097	0.000758787	58
2	100166	0.000759299	58
2	100511	0.000761859	55
2	100573	0.000762371	57
2	100633	0.000762883	58
2	100702	0.000763395	58
2	101047	0.000765955	55
2	101109	0.000766467	57
2	101169	0.000766979	58
2	101238	0.000767491	58
2	101583	0.000770051	55
2	101645	0.000770563	57
2	101705	0.000771075	58
2	101774	0.000771587	58
2	102119	0.000774147	55
2	102181	0.000774659	57
2	102241	0.000775171	58
2	102310	0.000775683	58
2	102655	0.000778243	55
2	102717	0.000778755	57
2	102777	0.000779267	58
2	102846	0.000779779	58
2	103191	0.000782339	55
2	103253	0.000782851	57
2	103313	0.000783363	58
2	103382	0.000783875	58
2	103733	0.000786435	55
2	103795	0.000786947	57
2	103855	0.000787459	58
2	103924	0.000787971	58
2	104269	0.000790531	55
2	104331	0.000791043	57
2	104391	0.000791555	58
2	104460	0.000792067	58
2	104805	0.000794627	55
2	104867	0.000795139	57
2	104927	0.000795651	58
2	104996	0.000796163	58
2	105341	0.000798723	55
2	105403	0.000799235	57
2	105463	0.000799747	58
2	105532	0.000800259	58
2	105877	0.000802819	55
2	105939	0.000803331	57
2	105999	0.000803843	58
2	106068	0.000804355	58
2	106413	0.000806915	55
2	106475	0.000807427	57
2	106535	0.000807939	58
2	106604	0.000808451	58
2	106949	0.000811011	55
2	107011	0.000811523	57
2	107071	0.000812035	58
2	107140	0.000812547	58
2	107485	0.000815107	55
2	107547	0.000815619	57
2	107607	0.000816131	58
2	107676	0.000816643	58
2	108021	0.000819203	55
2	108083	0.000819715	57
2	108143	0.000820227	58
2	108212	0.000820739	58
2	108557	0.000823299	55
2	108619	0.000823811	57
2	108679	0.000824323	58
2	108748	0.000824835	58
2	109093	0.000827395	55
2	109155	0.000827907	57
2	109215	0.000828419	58
2	109284	0.000828931	58
2	109629	0.000831491	55
2	109691	0.000832003	57
2	109751	0.000832515	58
2	109826	0.000833027	58
2	110171	0.000835587	55
2	110233	0.000836099	57
2	110293	0.000836611	58
2	110362	0.000837123	58
2	110707	0.000839683	55
2	110769	0.000840195	57
2	110829	0.000840707	58
2	110898	0.000841219	58
2	111243	0.000843779	55
2	111305	0.000844291	57
2	111365	0.000844803	58
2	111434	0.000845315	58
2	111775	0.000847875	56
2	111832	0.000848387	57
2	111901	0.000848899	57
2	111959	0.000849411	58
2	112298	0.000851971	55
2	112356	0.000852483	57
2	112425	0.000852995	57
2	112486	0.000853507	58
2	112831	0.000856067	55
2	112892	0.000856579	57
2	112961	0.000857091	57
2	113022	0.000857603	58
2	113367	0.000860163	55
2	113428	0.000860675	57
2	113497	0.000861187	57
2	113558	0.000861699	58
2	113903	0.000864259	55
2	113964	0.000864771	57
2	114033	0.000865283	57
2	114094	0.000865795	58
2	114439	0.000868355	55
2	114500	0.000868867	57
2	114569	0.000869379	57
2	114630	0.000869891	58
2	114975	0.000872451	55
2	115036	0.000872963	57
2	115105	0.000873475	57
2	115166	0.000873987	58
2	115511	0.000876547	55
2	115572	0.000877059	57
2	115641	0.000877571	57
2	115702	0.000878083	58
2	116047	0.000880643	55
2	116108	0.000881155	57
2	116177	0.000881667	57
2	116244	0.000882179	58
2	116589	0.000884739	55
2	116650	0.000885251	57
2	116719	0.000885763	57
2	116780	0.000886275	58
2	117125	0.000888835	55
2	117186	0.000889347	57
2	117255	0.000889859	57
2	117316	0.000890371	58
2	117661	0.000892931	55
2	117722	0.000893443	57
2	117791	0.000893955	57
2	117852	0.000894467	58
2	118197	0.000897027	55
2	118258	0.000897539	57
2	118327	0.000898051	57
2	118388	0.000898563	58
2	118733	0.000901123	55
2	118794	0.000901635	57
2	118863	0.000902147	57
2	118924	0.000902659	58
2	119269	0.000905219	55
2	119330	0.000905731	57
2	119399	0.000906243	57
2	119460	0.000906755	58
2	119805	0.000909315	55
2	119866	0.000909827	57
2	119935	0.000910339	57
2	119996	0.000910851	58
2	120341	0.000913411	55
2	120402	0.000913923	57
2	120471	0.000914435	57
2	120532	0.000914947	58
2	120877	0.000917507	55
2	120938	0.000918019	57
2	121007	0.000918531	57
2	121068	0.000919043	58
2	121413	0.000921603	55
2	121474	0.000922115	57
2	121543	0.000922627	57
2	121604	0.000923139	58
2	121949	0.000925699	55
2	122010	0.000926211	57
2	122079	0.000926723	57
2	122140	0.000927235	58
2	122485	0.000929795	55
2	122546	0.000930307	57
2	122615	0.000930819	57
2	122682	0.000931331	58
2	123027	0.000933891	55
2	123088	0.000934403	57
2	123157	0.000934915	57
2	123218	0.000935427	58
2	123563	0.000937987	55
2	123624	0.000938499	57
2	123693	0.000939011	57
2	123754	0.000939523	58
2	124099	0.000942083	55
2	124160	0.000942595	57
2	124229	0.000943107	57
2	124290	0.000943619	58
2	124635	0.000946179	55
2	124696	0.000946691	57
2	124765	0.000947203	57
2	124826	0.000947715	58
2	125171	0.000950275	55
2	125232	0.000950787	57
2	125301	0.000951299	57
2	125362	0.000951811	58
2	125707	0.000954371	55
2	125768	0.000954883	57
2	125837	0.000955395	57
2	125898	0.000955907	58
2	126243	0.000958467	55
2	126304	0.000958979	57
2	126373	0.000959491	57
2	126434	0.000960003	58
2	126779	0.000962563	55
2	126840	0.000963075	57
2	126909	0.000963587	57
2	126970	0.000964099	58
2	127315	0.000966659	55
2	127376	0.000967171	57
2	127445	0.000967683	57
2	127506	0.000968195	58
2	127851	0.000970755	55
2	127912	0.000971267	57
2	127981	0.000971779	57
2	128042	0.000972291	58
2	128387	0.000974851	55
2	128448	0.000975363	57
2	128517	0.000975875	57
2	128578	0.000976387	58
2	128923	0.000978947	55
2	128984	0.000979459	57
2	129053	0.000979971	57
2	129120	0.000980483	58
2	129465	0.000983043	55
2	129526	0.000983555	57
2	129595	0.000984067	57
2	129656	0.000984579	58
2	130001	0.000987139	55
2	130062	0.000987651	57
2	130131	0.000988163	57
2	130192	0.000988675	58
2	130537	0.000991235	55
2	130598	0.000991747	57
2	130667	0.000992259	57
2	130728	0.000992771	58
2	131073	0.000995331	55
2	131134	0.000995843	57
2	131203	0.000996355	57
2	131264	0.000996867	58
2	131609	0.000999427	55
2	131670	0.000999939	57
2	131739	0.001000451	57
2	131800	0.001000963	58
2	132145	0.001003523	55
2	132206	0.001004035	57
2	132275	0.001004547	57
2	132336	0.001005059	58
2	132681	0.001007619	55
2	132742	0.001008131	57
2	132811	0.001008643	57
2	132872	0.001009155	58
2	133217	0.001011715	55
2	133278	0.001012227	57
2	133347	0.001012739	57
2	133408	0.001013251	58
2	133753	0.001015811	55
2	133814	0.001016323	57
2	133883	0.001016835	57
2	133944	0.001017347	58
2	134289	0.001019907	55
2	134350	0.001020419	57
2	134419	0.001020931	57
2	134480	0.001021443	58
2	134825	0.001024003	55
2	134886	0.001024515	57
2	134955	0.001025027	57
2	135016	0.001025539	58
2	135361	0.001028099	55
2	135422	0.001028611	57
2	135497	0.001029123	57
2	135558	0.001029635	58
2	135903	0.001032195	55
2	135964	0.001032707	57
2	136033	0.001033219	57
2	136094	0.001033731	58
2	136439	0.001036291	55
2	136500	0.001036803	57
2	136569	0.001037315	57
2	136630	0.001037827	58
2	136975	0.001040387	55
2	137036	0.001040899	57
2	137105	0.001041411	57
2	137166	0.001041923	58
2	137511	0.001044483	55
2	137572	0.001044995	57
2	137641	0.001045507	57
2	137702	0.001046019	58
2	138047	0.001048579	55
2	138108	0.001049091	57
2	138177	0.001049603	57
2	138238	0.001050115	58
2	138583	0.001052675	55
2	138644	0.001053187	57
2	138713	0.001053699	57
2	138774	0.001054211	58
2	139119	0.001056771	55
2	139180	0.001057283	57
2	139249	0.001057795	57
2	139310	0.001058307	58
2	139655	0.001060867	55
2	139716	0.001061379	57
2	139785	0.001061891	57
2	139846	0.001062403	58
2	140191	0.001064963	55
2	140252	0.001065475	57
2	140321	0.001065987	57
2	140382	0.001066499	58
2	140727	0.001069059	55
2	140788	0.001069571	57
2	140857	0.001070083	57
2	140918	0.001070595	58
2	141263	0.001073155	55
2	141324	0.001073667	57
2	141393	0.001074179	57
2	141454	0.001074691	58
2	141799	0.001077251	55
2	141860	0.001077763	57
2	141935	0.001078275	57
2	141996	0.001078787	58
2	142341	0.001081347	55
2	142402	0.001081859	57
2	142471	0.001082371	57
2	142532	0.001082883	58
2	142877	0.001085443	55
2	142938	0.001085955	57
2	143007	0.001086467	57
2	143068	0.001086979	58
2	143413	0.001089539	55
2	143474	0.001090051	57
2	143543	0.001090563	57
2	143604	0.001091075	58
2	143949	0.001093635	55
2	144010	0.001094147	57
2	144079	0.001094659	57
2	144140	0.001095171	58
2	144485	0.001097731	55
2	144546	0.001098243	57
2	144615	0.001098755	57
2	144676	0.001099267	58
2	145021	0.001101827	55
2	145082	0.001102339	57
2	145151	0.001102851	57
2	145212	0.001103363	58
2	145557	0.001105923	55
2	145618	0.001106435	57
2	145687	0.001106947	57
2	145748	0.001107459	58
2	146093	0.001110019	55
2	146154	0.001110531	57
2	146223	0.001111043	57
2	146284	0.001111555	58
2	146629	0.001114115	55
2	146690	0.001114627	57
2	146759	0.001115139	57
2	146820	0.001115651	58
2	147165	0.001118211	55
2	147226	0.001118723	57
2	147295	0.001119235	57
2	147356	0.001119747	58
2	147701	0.001122307	55
2	147762	0.001122819	57
2	147831	0.001123331	57
2	147892	0.001123843	58
2	148237	0.001126403	55
2	148298	0.001126915	57
2	148373	0.001127427	57
2	148434	0.001127939	58
2	148779	0.001130499	55
2	148840	0.001131011	57
2	148909	0.001131523	57
2	148970	0.001132035	58
2	149315	0.001134595	55
2	149376	0.001135107	57
2	149445	0.001135619	57
2	149506	0.001136131	58
2	149851	0.001138691	55
2	149912	0.001139203	57
2	149981	0.001139715	57
2	150042	0.001140227	58
2	150387	0.001142787	55
2	150448	0.001143299	57
2	150517	0.001143811	57
2	150578	0.001144323	58
2	150923	0.001146883	55
2	150984	0.001147395	57
2	151053	0.001147907	57
2	151114	0.001148419	58
2	151459	0.001150979	55
2	151520	0.001151491	57
2	151589	0.001152003	57
2	151650	0.001152515	58
2	151995	0.001155075	55
2	152056	0.001155587	57
2	152125	0.001156099	57
2	152186	0.001156611	58
2	152531	0.001159171	55
2	152592	0.001159683	57
2	152661	0.001160195	57
2	152722	0.001160707	58
2	153067	0.001163267	55
2	153128	0.001163779	57
2	153197	0.001164291	57
2	153258	0.001164803	58
2	153603	0.001167363	55
2	153664	0.001167875	57
2	153733	0.001168387	57
2	153794	0.001168899	58
2	154139	0.001171459	55
2	154200	0.001171971	57
2	154269	0.001172483	57
2	154330	0.001172995	58
2	154675	0.001175555	55
2	154742	0.001176067	57
2	154811	0.001176579	57
2	154872	0.001177091	58
2	155217	0.001179651	55
2	155278	0.001180163	57
2	155347	0.001180675	57
2	155408	0.001181187	58
2	155753	0.001183747	55
2	155814	0.001184259	57
2	155883	0.001184771	57
2	155944	0.001185283	58
2	156289	0.001187843	55
2	156350	0.001188355	57
2	156419	0.001188867	57
2	156480	0.001189379	58
2	156825	0.001191939	55
2	156886	0.001192451	57
2	156955	0.001192963	57
2	157016	0.001193475	58
2	157361	0.001196035	55
2	157422	0.001196547	57
2	157491	0.001197059	57
2	157552	0.001197571	58
2	157897	0.001200131	55
2	157958	0.001200643	57
2	158027	0.001201155	57
2	158088	0.001201667	58
2	158433	0.001204227	55
2	158494	0.001204739	57
2	158563	0.001205251	57
2	158624	0.001205763	58
2	158969	0.001208323	55
2	159030	0.001208835	57
2	159099	0.001209347	57
2	159160	0.001209859	58
2	159505	0.001212419	55
2	159566	0.001212931	57
2	159635	0.001213443	57
2	159696	0.001213955	58
2	160041	0.001216515	55
2	160102	0.001217027	57
2	160171	0.001217539	57
2	160232	0.001218051	58
2	160577	0.001220611	55
2	160638	0.001221123	57
2	160707	0.001221635	57
2	160768	0.001222147	58
2	161113	0.001224707	55
2	161180	0.001225219	57
2	161249	0.001225731	57
2	161310	0.001226243	58
2	161655	0.001228803	55
2	161716	0.001229315	57
2	161785	0.001229827	57
2	161846	0.001230339	58
2	162191	0.001232899	55
2	162252	0.001233411	57
2	162321	0.001233923	57
2	162382	0.001234435	58
2	162727	0.001236995	55
2	162788	0.001237507	57
2	162857	0.001238019	57
2	162918	0.001238531	58
2	163263	0.001241091	55
2	163324	0.001241603	57
2	163393	0.001242115	57
2	163454	0.001242627	58
2	163799	0.001245187	55
2	163860	0.001245699	57
2	163929	0.001246211	57
2	163990	0.001246723	58
2	164335	0.001249283	55
2	164396	0.001249795	57
2	164465	0.001250307	57
2	164526	0.001250819	58
2	164871	0.001253379	55
2	164932	0.001253891	57
2	165001	0.001254403	57
2	165062	0.001254915	58
2	165407	0.001257475	55
2	165468	0.001257987	57
2	165537	0.001258499	57
2	165598	0.001259011	58
2	165943	0.001261571	55
2	166004	0.001262083	57
2	166073	0.001262595	57
2	166134	0.001263107	58
2	166479	0.001265667	55
2	166540	0.001266179	57
2	166609	0.001266691	57
2	166670	0.001267203	58
2	167015	0.001269763	55
2	167076	0.001270275	57
2	167145	0.001270787	57
2	167206	0.001271299	58
2	167551	0.001273859	55
2	167618	0.001274371	57
2	167687	0.001274883	57
2	167748	0.001275395	58
2	168093	0.001277955	55
2	168154	0.001278467	57
2	168223	0.001278979	57
2	168284	0.001279491	58
2	168629	0.001282051	55
2	168690	0.001282563	57
2	168759	0.001283075	57
2	168820	0.001283587	58
2	169165	0.001286147	55
2	169226	0.001286659	57
2	169295	0.001287171	57
2	169356	0.001287683	58
2	169701	0.001290243	55
2	169762	0.001290755	57
2	169831	0.001291267	57
2	169892	0.001291779	58
2	170237	0.001294339	55
2	170298	0.001294851	57
2	170367	0.001295363	57
2	170428	0.001295875	58
2	170773	0.001298435	55
2	170834	0.001298947	57
2	170903	0.001299459	57
2	170964	0.001299971	58
2	171309	0.001302531	55
2	171370	0.001303043	57
2	171439	0.001303555	57
2	171500	0.001304067	58
2	171845	0.001306627	55
2	171906	0.001307139	57
2	171975	0.001307651	57
2	172036	0.001308163	58
2	172381	0.001310723	55
2	172442	0.001311235	57
2	172511	0.001311747	57
2	172572	0.001312259	58
2	172917	0.001314819	55
2	172978	0.001315331	57
2	173047	0.001315843	57
2	173108	0.001316355	58
2	173453	0.001318915	55
2	173514	0.001319427	57
2	173583	0.001319939	57
2	173644	0.001320451	58
2	173995	0.001323011	55
2	174056	0.001323523	57
2	174125	0.001324035	57
2	174186	0.001324547	58
2	174531	0.001327107	55
2	174592	0.001327619	57
2	174661	0.001328131	57
2	174722	0.001328643	58
2	175067	0.001331203	55
2	175128	0.001331715	57
2	175197	0.001332227	57
2	175258	0.001332739	58
2	175603	0.001335299	55
2	175664	0.001335811	57
2	175733	0.001336323	57
2	175794	0.001336835	58
2	176139	0.001339395	55
2	176200	0.001339907	57
2	176269	0.001340419	57
2	176330	0.001340931	58
2	176675	0.001343491	55
2	176736	0.001344003	57
2	176805	0.001344515	57
2	176866	0.001345027	58
2	177211	0.001347587	55
2	177272	0.001348099	57
2	177341	0.001348611	57
2	177402	0.001349123	58
2	177747	0.001351683	55
2	177808	0.001352195	57
2	177877	0.001352707	57
2	177938	0.001353219	58
2	178283	0.001355779	55
2	178344	0.001356291	57
2	178413	0.001356803	57
2	178474	0.001357315	58
2	178819	0.001359875	55
2	178880	0.001360387	57
2	178949	0.001360899	57
2	179010	0.001361411	58
2	179355	0.001363971	55
2	179416	0.001364483	57
2	179485	0.001364995	57
2	179546	0.001365507	58
2	179891	0.001368067	55
2	179952	0.001368579	57
2	180021	0.001369091	57
2	180082	0.001369603	58
2	180433	0.001372163	55
2	180494	0.001372675	57
2	180563	0.001373187	57
2	180624	0.001373699	58
2	180969	0.001376259	55
2	181030	0.001376771	57
2	181099	0.001377283	57
2	181160	0.001377795	58
2	181505	0.001380355	55
2	181566	0.001380867	57
2	181635	0.001381379	57
2	181696	0.001381891	58
2	182041	0.001384451	55
2	182102	0.001384963	57
2	182171	0.001385475	57
2	182232	0.001385987	58
2	182577	0.001388547	55
2	182638	0.001389059	57
2	182707	0.001389571	57
2	182768	0.001390083	58
2	183113	0.001392643	55
2	183174	0.001393155	57
2	183243	0.001393667	57
2	183304	0.001394179	58
2	183649	0.001396739	55
2	183710	0.001397251	57
2	183779	0.001397763	57
2	183840	0.001398275	58
2	184185	0.001400835	55
2	184246	0.001401347	57
2	184315	0.001401859	57
2	184376	0.001402371	58
2	184721	0.001404931	55
2	184782	0.001405443	57
2	184851	0.001405955	57
2	184912	0.001406467	58
2	185257	0.001409027	55
2	185318	0.001409539	57
2	185387	0.001410051	57
2	185448	0.001410563	58
2	185793	0.001413123	55
2	185854	0.001413635	57
2	185923	0.001414147	57
2	185984	0.001414659	58
2	186329	0.001417219	55
2	186390	0.001417731	57
2	186459	0.001418243	57
2	186520	0.001418755	58
2	186871	0.001421315	55
2	186932	0.001421827	57
2	187001	0.001422339	57
2	187062	0.001422851	58
2	187407	0.001425411	55
2	187468	0.001425923	57
2	187537	0.001426435	57
2	187598	0.001426947	58
2	187943	0.001429507	55
2	188004	0.001430019	57
2	188073	0.001430531	57
2	188134	0.001431043	58
2	188479	0.001433603	55
2	188540	0.001434115	57
2	188609	0.001434627	57
2	188670	0.001435139	58
2	189015	0.001437699	55
2	189076	0.001438211	57
2	189145	0.001438723	57
2	189206	0.001439235	58
2	189551	0.001441795	55
2	189612	0.001442307	57
2	189681	0.001442819	57
2	189742	0.001443331	58
2	190087	0.001445891	55
2	190148	0.001446403	57
2	190217	0.001446915	57
2	190278	0.001447427	58
2	190623	0.001449987	55
2	190684	0.001450499	57
2	190753	0.001451011	57
2	190814	0.001451523	58
2	191159	0.001454083	55
2	191220	0.001454595	57
2	191289	0.001455107	57
2	191350	0.001455619	58
2	191695	0.001458179	55
2	191756	0.001458691	57
2	191825	0.001459203	57
2	191886	0.001459715	58
2	192231	0.001462275	55
2	192292	0.001462787	57
2	192361	0.001463299	57
2	192422	0.001463811	58
2	192767	0.001466371	55
2	192828	0.001466883	57
2	192897	0.001467395	57
2	192958	0.001467907	58
2	193309	0.001470467	55
2	193370	0.001470979	57
2	193439	0.001471491	57
2	193500	0.001472003	58
2	193845	0.001474563	55
2	193906	0.001475075	57
2	193975	0.001475587	57
2	194036	0.001476099	58
2	194381	0.001478659	55
2	194442	0.001479171	57
2	194511	0.001479683	57
2	194572	0.001480195	58
2	194917	0.001482755	55
2	194978	0.001483267	57
2	195047	0.001483779	57
2	195108	0.001484291	58
2	195453	0.001486851	55
2	195514	0.001487363	57
2	195583	0.001487875	57
2	195644	0.001488387	58
2	195989	0.001490947	55
2	196050	0.001491459	57
2	196119	0.001491971	57
2	196180	0.001492483	58
2	196525	0.001495043	55
2	196586	0.001495555	57
2	196655	0.001496067	57
2	196716	0.001496579	58
2	197061	0.001499139	55
2	197122	0.001499651	57
2	197191	0.001500163	57
2	197252	0.001500675	58
2	197597	0.001503235	55
2	197658	0.001503747	57
2	197727	0.001504259	57
2	197788	0.001504771	58
2	198133	0.001507331	55
2	198194	0.001507843	57
2	198263	0.001508355	57
2	198324	0.001508867	58
2	198669	0.001511427	55
2	198730	0.001511939	57
2	198799	0.001512451	57
2	198860	0.001512963	58
2	199205	0.001515523	55
2	199266	0.001516035	57
2	199335	0.001516547	57
2	199396	0.001517059	58
2	199747	0.001519619	55
2	199808	0.001520131	57
2	199877	0.001520643	57
2	199938	0.001521155	58
2	200283	0.001523715	55
2	200344	0.001524227	57
2	200413	0.001524739	57
2	200474	0.001525251	58
2	200819	0.001527811	55
2	200880	0.001528323	57
2	200949	0.001528835	57
2	201010	0.001529347	58
2	201355	0.001531907	55
2	201416	0.001532419	57
2	201485	0.001532931	57
2	201546	0.001533443	58
2	201891	0.001536003	55
2	201952	0.001536515	57
2	202021	0.001537027	57
2	202082	0.001537539	58
2	202427	0.001540099	55
2	202488	0.001540611	57
2	202557	0.001541123	57
2	202618	0.001541635	58
2	202963	0.001544195	55
2	203024	0.001544707	57
2	203093	0.001545219	57
2	203154	0.001545731	58
2	203499	0.001548291	55
2	203560	0.001548803	57
2	203629	0.001549315	57
2	203690	0.001549827	58
2	204035	0.001552387	55
2	204096	0.001552899	57
2	204165	0.001553411	57
2	204226	0.001553923	58
2	204571	0.001556483	55
2	204632	0.001556995	57
2	204701	0.001557507	57
2	204762	0.001558019	58
2	205107	0.001560579	55
2	205168	0.001561091	57
2	205237	0.001561603	57
2	205298	0.001562115	58
2	205643	0.001564675	55
2	205704	0.001565187	57
2	205773	0.001565699	57
2	205834	0.001566211	58
2	206185	0.001568771	55
2	206246	0.001569283	57
2	206315	0.001569795	57
2	206376	0.001570307	58
2	206721	0.001572867	55
2	206782	0.001573379	57
2	206851	0.001573891	57
2	206912	0.001574403	58
2	207257	0.001576963	55
2	207318	0.001577475	57
2	207387	0.001577987	57
2	207448	0.001578499	58
2	207793	0.001581059	55
2	207854	0.001581571	57
2	207923	0.001582083	57
2	207984	0.001582595	58
2	208329	0.001585155	55
2	208390	0.001585667	57
2	208459	0.001586179	57
2	208520	0.001586691	58
2	208865	0.001589251	55
2	208926	0.001589763	57
2	208995	0.001590275	57
2	209056	0.001590787	58
2	209401	0.001593347	55
2	209462	0.001593859	57
2	209531	0.001594371	57
2	209592	0.001594883	58
2	209937	0.001597443	55
2	209998	0.001597955	57
2	210067	0.001598467	57
2	210128	0.001598979	58
2	210473	0.001601539	55
2	210534	0.001602051	57
2	210603	0.001602563	57
2	210664	0.001603075	58
2	211009	0.001605635	55
2	211070	0.001606147	57
2	211138	0.001606659	57
2	211200	0.001607171	58
2	211545	0.001609731	55
2	211606	0.001610243	57
2	211674	0.001610755	57
2	211736	0.001611267	58
2	212081	0.001613827	55
2	212142	0.001614339	57
2	212210	0.001614851	57
2	212272	0.001615363	58
2	212623	0.001617923	55
2	212684	0.001618435	57
2	212752	0.001618947	57
2	212814	0.001619459	58
2	213159	0.001622019	55
2	213220	0.001622531	57
2	213288	0.001623043	57
2	213350	0.001623555	58
2	213695	0.001626115	55
2	213756	0.001626627	57
2	213824	0.001627139	57
2	213886	0.001627651	58
2	214231	0.001630211	55
2	214292	0.001630723	57
2	214360	0.001631235	57
2	214422	0.001631747	58
2	214767	0.001634307	55
2	214828	0.001634819	57
2	214896	0.001635331	57
2	214958	0.001635843	58
2	215303	0.001638403	55
2	215364	0.001638915	57
2	215432	0.001639427	57
2	215494	0.001639939	58
2	215839	0.001642499	55
2	215900	0.001643011	57
2	215968	0.001643523	57
2	216030	0.001644035	58
2	216375	0.001646595	55
2	216436	0.001647107	57
2	216504	0.001647619	57
2	216566	0.001648131	58
2	216911	0.001650691	55
2	216971	0.001651203	57
2	217039	0.001651715	57
2	217101	0.001652227	58
2	217446	0.001654787	55
2	217507	0.001655299	57
2	217575	0.001655811	57
2	217637	0.001656323	58
2	217982	0.001658883	55
2	218043	0.001659395	57
2	218111	0.001659907	57
2	218173	0.001660419	58
2	218518	0.001662979	55
2	218579	0.001663491	57
2	218647	0.001664003	57
2	218709	0.001664515	58
2	219060	0.001667075	55
2	219121	0.001667587	57
2	219189	0.001668099	57
2	219251	0.001668611	58
2	219596	0.001671171	55
2	219657	0.001671683	57
2	219725	0.001672195	57
2	219787	0.001672707	58
2	220132	0.001675267	55
2	220193	0.001675779	57
2	220261	0.001676291	57
2	220323	0.001676803	58
2	220668	0.001679363	55
2	220729	0.001679875	57
2	220797	0.001680387	57
2	220859	0.001680899	58
2	221204	0.001683459	55
2	221265	0.001683971	57
2	221333	0.001684483	57
2	221395	0.001684995	58
2	221740	0.001687555	55
2	221801	0.001688067	57
2	221869	0.001688579	57
2	221931	0.001689091	58
2	222277	0.001691651	55
2	222332	0.001692163	57
2	222401	0.001692675	57
2	222463	0.001693187	58
2	222810	0.001695747	55
2	222868	0.001696259	57
2	222935	0.001696771	57
2	222996	0.001697283	58
2	223341	0.001699843	55
2	223402	0.001700355	57
2	223470	0.001700867	57
2	223532	0.001701379	58
2	223877	0.001703939	55
2	223938	0.001704451	57
2	224006	0.001704963	57
2	224068	0.001705475	58
2	224413	0.001708035	55
2	224474	0.001708547	57
2	224542	0.001709059	57
2	224604	0.001709571	58
2	224949	0.001712131	55
2	225010	0.001712643	57
2	225078	0.001713155	57
2	225140	0.001713667	58
2	225491	0.001716227	55
2	225552	0.001716739	57
2	225620	0.001717251	57
2	225682	0.001717763	58
2	226027	0.001720323	55
2	226088	0.001720835	57
2	226156	0.001721347	57
2	226218	0.001721859	58
2	226563	0.001724419	55
2	226624	0.001724931	57
2	226692	0.001725443	57
2	226754	0.001725955	58
2	227099	0.001728515	55
2	227160	0.001729027	57
2	227228	0.001729539	57
2	227290	0.001730051	58
2	227635	0.001732611	55
2	227696	0.001733123	57
2	227764	0.001733635	57
2	227826	0.001734147	58
2	228171	0.001736707	55
2	228232	0.001737219	57
2	228300	0.001737731	57
2	228362	0.001738243	58
2	228707	0.001740803	55
2	228768	0.001741315	57
2	228836	0.001741827	57
2	228898	0.001742339	58
2	229243	0.001744899	55
2	229304	0.001745411	57
2	229372	0.001745923	57
2	229434	0.001746435	58
2	229779	0.001748995	55
2	229840	0.001749507	57
2	229908	0.001750019	57
2	229970	0.001750531	58
2	230315	0.001753091	55
2	230376	0.001753603	57
2	230436	0.001754115	58
2	230505	0.001754627	58
2	230850	0.001757187	55
2	230912	0.001757699	57
2	230972	0.001758211	58
2	231041	0.001758723	58
2	231386	0.001761283	55
2	231448	0.001761795	57
2	231508	0.001762307	58
2	231577	0.001762819	58
2	231928	0.001765379	55
2	231990	0.001765891	57
2	232050	0.001766403	58
2	232119	0.001766915	58
2	232464	0.001769475	55
2	232526	0.001769987	57
2	232586	0.001770499	58
2	232655	0.001771011	58
2	233000	0.001773571	55
2	233062	0.001774083	57
2	233122	0.001774595	58
2	233191	0.001775107	58
2	233536	0.001777667	55
2	233598	0.001778179	57
2	233658	0.001778691	58
2	233727	0.001779203	58
2	234072	0.001781763	55
2	234134	0.001782275	57
2	234194	0.001782787	58
2	234263	0.001783299	58
2	234608	0.001785859	55
2	234670	0.001786371	57
2	234730	0.001786883	58
2	234799	0.001787395	58
2	235144	0.001789955	55
2	235206	0.001790467	57
2	235266	0.001790979	58
2	235335	0.001791491	58
2	235680	0.001794051	55
2	235722	0.001794563	57
2	235782	0.001795075	58
2	235851	0.001795587	58
2	236197	0.001798147	55
2	236257	0.001798659	57
2	236317	0.001799171	58
2	236386	0.001799683	58
2	236731	0.001802243	55
2	236793	0.001802755	57
2	236853	0.001803267	58
2	236922	0.001803779	58
2	237267	0.001806339	55
2	237329	0.001806851	57
2	237389	0.001807363	58
2	237458	0.001807875	58
2	237803	0.001810435	55
2	237865	0.001810947	57
2	237925	0.001811459	58
2	237994	0.001811971	58
2	238345	0.001814531	55
2	238407	0.001815043	57
2	238467	0.001815555	58
2	238536	0.001816067	58
2	238881	0.001818627	55
2	238943	0.001819139	57
2	239003	0.001819651	58
2	239072	0.001820163	58
2	239417	0.001822723	55
2	239479	0.001823235	57
2	239539	0.001823747	58
2	239608	0.001824259	58
2	239953	0.001826819	55
2	240015	0.001827331	57
2	240075	0.001827843	58
2	240144	0.001828355	58
2	240489	0.001830915	55
2	240551	0.001831427	57
2	240611	0.001831939	58
2	240680	0.001832451	58
2	241025	0.001835011	55
2	241087	0.001835523	57
2	241147	0.001836035	58
2	241216	0.001836547	58
2	241561	0.001839107	55
2	241623	0.001839619	57
2	241683	0.001840131	58
2	241752	0.001840643	58
2	242097	0.001843203	55
2	242159	0.001843715	57
2	242219	0.001844227	58
2	242288	0.001844739	58
2	242633	0.001847299	55
2	242695	0.001847811	57
2	242755	0.001848323	58
2	242824	0.001848835	58
2	243169	0.001851395	55
2	243231	0.001851907	57
2	243291	0.001852419	58
2	243360	0.001852931	58
2	243705	0.001855491	55
2	243767	0.001856003	57
2	243827	0.001856515	58
2	243896	0.001857027	58
2	244241	0.001859587	55
2	244303	0.001860099	57
2	244363	0.001860611	58
2	244432	0.001861123	58
2	244783	0.001863683	55
2	244845	0.001864195	57
2	244905	0.001864707	58
2	244974	0.001865219	58
2	245319	0.001867779	55
2	245381	0.001868291	57
2	245441	0.001868803	58
2	245510	0.001869315	58
2	245855	0.001871875	55
2	245917	0.001872387	57
2	245977	0.001872899	58
2	246046	0.001873411	58
2	246391	0.001875971	55
2	246453	0.001876483	57
2	246513	0.001876995	58
2	246582	0.001877507	58
2	246927	0.001880067	55
2	246989	0.001880579	57
2	247049	0.001881091	58
2	247118	0.001881603	58
2	247463	0.001884163	55
2	247525	0.001884675	57
2	247585	0.001885187	58
2	247654	0.001885699	58
2	247999	0.001888259	55
2	248061	0.001888771	57
2	248121	0.001889283	58
2	248190	0.001889795	58
2	248535	0.001892355	55
2	248597	0.001892867	57
2	248657	0.001893379	58
2	248726	0.001893891	58
2	249067	0.001896451	56
2	249124	0.001896963	58
2	249193	0.001897475	58
2	249590	0.001900547	55
2	249648	0.001901059	57
2	249717	0.001901571	57
2	249778	0.001902083	58
2	250123	0.001904643	55
2	250184	0.001905155	57
2	250253	0.001905667	57
2	250314	0.001906179	58
2	250659	0.001908739	55
2	250720	0.001909251	57
2	250789	0.001909763	57
2	250850	0.001910275	58
2	251201	0.001912835	55
2	251262	0.001913347	57
2	251331	0.001913859	57
2	251392	0.001914371	58
2	251737	0.001916931	55
2	251798	0.001917443	57
2	251867	0.001917955	57
2	251928	0.001918467	58
2	252273	0.001921027	55
2	252334	0.001921539	57
2	252403	0.001922051	57
2	252464	0.001922563	58
2	252809	0.001925123	55
2	252870	0.001925635	57
2	252939	0.001926147	57
2	253000	0.001926659	58
2	253345	0.001929219	55
2	253406	0.001929731	57
2	253475	0.001930243	57
2	253536	0.001930755	58
2	253881	0.001933315	55
2	253942	0.001933827	57
2	254011	0.001934339	57
2	254072	0.001934851	58
2	254417	0.001937411	55
2	254478	0.001937923	57
2	254547	0.001938435	57
2	254608	0.001938947	58
2	254953	0.001941507	55
2	255014	0.001942019	57
2	255083	0.001942531	57
2	255144	0.001943043	58
2	255489	0.001945603	55
2	255550	0.001946115	57
2	255619	0.001946627	57
2	255680	0.001947139	58
2	256025	0.001949699	55
2	256086	0.001950211	57
2	256155	0.001950723	57
2	256216	0.001951235	58
2	256561	0.001953795	55
2	256622	0.001954307	57
2	256691	0.001954819	57
2	256752	0.001955331	58
2	257097	0.001957891	55
2	257158	0.001958403	57
2	257227	0.001958915	57
2	257288	0.001959427	58
2	257639	0.001961987	55
2	257700	0.001962499	57
2	257769	0.001963011	57
2	257830	0.001963523	58
2	258175	0.001966083	55
2	258236	0.001966595	57
2	258305	0.001967107	57
2	258366	0.001967619	58
2	258711	0.001970179	55
2	258772	0.001970691	57
2	258841	0.001971203	57
2	258902	0.001971715	58
2	259247	0.001974275	55
2	259308	0.001974787	57
2	259377	0.001975299	57
2	259438	0.001975811	58
2	259783	0.001978371	55
2	259844	0.001978883	57
2	259913	0.001979395	57
2	259974	0.001979907	58
2	260319	0.001982467	55
2	260380	0.001982979	57
2	260449	0.001983491	57
2	260510	0.001984003	58
2	260855	0.001986563	55
2	260916	0.001987075	57
2	260985	0.001987587	57
2	261046	0.001988099	58
2	261391	0.001990659	55
2	261452	0.001991171	57
2	261521	0.001991683	57
2	261582	0.001992195	58
2	261927	0.001994755	55
2	261988	0.001995267	57
2	262057	0.001995779	57
2	262118	0.001996291	58
2	262463	0.001998851	55
2	262524	0.001999363	57
2	262593	0.001999875	57
2	262654	0.002000387	58
2	262999	0.002002947	55
2	263060	0.002003459	57
2	263129	0.002003971	57
2	263190	0.002004483	58
2	263535	0.002007043	55
2	263596	0.002007555	57
2	263665	0.002008067	57
2	263726	0.002008579	58
2	264077	0.002011139	55
2	264138	0.002011651	57
2	264207	0.002012163	57
2	264268	0.002012675	58
2	264613	0.002015235	55
2	264674	0.002015747	57
2	264743	0.002016259	57
2	264804	0.002016771	58
2	265149	0.002019331	55
2	265210	0.002019843	57
2	265279	0.002020355	57
2	265340	0.002020867	58
2	265685	0.002023427	55
2	265746	0.002023939	57
2	265815	0.002024451	57
2	265876	0.002024963	58
2	266221	0.002027523	55
2	266282	0.002028035	57
2	266351	0.002028547	57
2	266412	0.002029059	58
2	266757	0.002031619	55
2	266818	0.002032131	57
2	266887	0.002032643	57
2	266948	0.002033155	58
2	267293	0.002035715	55
2	267354	0.002036227	57
2	267423	0.002036739	57
2	267484	0.002037251	58
2	267829	0.002039811	55
2	267890	0.002040323	57
2	267959	0.002040835	57
2	268020	0.002041347	58
2	268365	0.002043907	55
2	268426	0.002044419	57
2	268495	0.002044931	57
2	268556	0.002045443	58
2	268901	0.002048003	55
2	268962	0.002048515	57
2	269031	0.002049027	57
2	269092	0.002049539	58
2	269437	0.002052099	55
2	269498	0.002052611	57
2	269567	0.002053123	57
2	269628	0.002053635	58
2	269973	0.002056195	55
2	270034	0.002056707	57
2	270103	0.002057219	57
2	270164	0.002057731	58
2	270515	0.002060291	55
2	270576	0.002060803	57
2	270645	0.002061315	57
2	270706	0.002061827	58
2	271051	0.002064387	55
2	271112	0.002064899	57
2	271181	0.002065411	57
2	271242	0.002065923	58
2	271587	0.002068483	55
2	271648	0.002068995	57
2	271717	0.002069507	57
2	271778	0.002070019	58
2	272123	0.002072579	55
2	272184	0.002073091	57
2	272253	0.002073603	57
2	272314	0.002074115	58
2	272659	0.002076675	55
2	272720	0.002077187	57
2	272789	0.002077699	57
2	272850	0.002078211	58
2	273195	0.002080771	55
2	273256	0.002081283	57
2	273325	0.002081795	57
2	273386	0.002082307	58
2	273731	0.002084867	55
2	273792	0.002085379	57
2	273861	0.002085891	57
2	273922	0.002086403	58
2	274267	0.002088963	55
2	274328	0.002089475	57
2	274397	0.002089987	57
2	274458	0.002090499	58
2	274803	0.002093059	55
2	274864	0.002093571	57
2	274933	0.002094083	57
2	274994	0.002094595	58
2	275339	0.002097155	55
2	275400	0.002097667	57
2	275469	0.002098179	57
2	275530	0.002098691	58
2	275875	0.002101251	55
2	275936	0.002101763	57
2	276005	0.002102275	57
2	276066	0.002102787	58
2	276411	0.002105347	55
2	276472	0.002105859	57
2	276541	0.002106371	57
2	276602	0.002106883	58
2	276953	0.002109443	55
2	277014	0.002109955	57
2	277083	0.002110467	57
2	277144	0.002110979	58
2	277489	0.002113539	55
2	277550	0.002114051	57
2	277619	0.002114563	57
2	277680	0.002115075	58
2	278025	0.002117635	55
2	278086	0.002118147	57
2	278155	0.002118659	57
2	278216	0.002119171	58
2	278561	0.002121731	55
2	278622	0.002122243	57
2	278691	0.002122755	57
2	278752	0.002123267	58
2	279097	0.002125827	55
2	279158	0.002126339	57
2	279227	0.002126851	57
2	279288	0.002127363	58
2	279633	0.002129923	55
2	279694	0.002130435	57
2	279763	0.002130947	57
2	279824	0.002131459	58
2	280169	0.002134019	55
2	280230	0.002134531	57
2	280299	0.002135043	57
2	280360	0.002135555	58
2	280705	0.002138115	55
2	280766	0.002138627	57
2	280835	0.002139139	57
2	280896	0.002139651	58
2	281241	0.002142211	55
2	281302	0.002142723	57
2	281371	0.002143235	57
2	281432	0.002143747	58
2	281777	0.002146307	55
2	281838	0.002146819	57
2	281907	0.002147331	57
2	281968	0.002147843	58
2	282313	0.002150403	55
2	282374	0.002150915	57
2	282443	0.002151427	57
2	282504	0.002151939	58
2	282849	0.002154499	55
2	282910	0.002155011	57
2	282979	0.002155523	57
2	283046	0.002156035	58
2	283391	0.002158595	55
2	283452	0.002159107	57
2	283521	0.002159619	57
2	283582	0.002160131	58
2	283927	0.002162691	55
2	283988	0.002163203	57
2	284057	0.002163715	57
2	284118	0.002164227	58
2	284463	0.002166787	55
2	284524	0.002167299	57
2	284593	0.002167811	57
2	284654	0.002168323	58
2	284999	0.002170883	55
2	285060	0.002171395	57
2	285129	0.002171907	57
2	285190	0.002172419	58
2	285535	0.002174979	55
2	285596	0.002175491	57
2	285665	0.002176003	57
2	285726	0.002176515	58
2	286071	0.002179075	55
2	286132	0.002179587	57
2	286201	0.002180099	57
2	286262	0.002180611	58
2	286607	0.002183171	55
2	286668	0.002183683	57
2	286737	0.002184195	57
2	286798	0.002184707	58
2	287143	0.002187267	55
2	287204	0.002187779	57
2	287273	0.002188291	57
2	287334	0.002188803	58
2	287679	0.002191363	55
2	287740	0.002191875	57
2	287809	0.002192387	57
2	287870	0.002192899	58
2	288215	0.002195459	55
2	288276	0.002195971	57
2	288345	0.002196483	57
2	288406	0.002196995	58
2	288751	0.002199555	55
2	288812	0.002200067	57
2	288881	0.002200579	57
2	288942	0.002201091	58
2	289287	0.002203651	55
2	289348	0.002204163	57
2	289417	0.002204675	57
2	289484	0.002205187	58
2	289829	0.002207747	55
2	289890	0.002208259	57
2	289959	0.002208771	57
2	290020	0.002209283	58
2	290365	0.002211843	55
2	290426	0.002212355	57
2	290495	0.002212867	57
2	290556	0.002213379	58
2	290901	0.002215939	55
2	290962	0.002216451	57
2	291031	0.002216963	57
2	291092	0.002217475	58
2	291437	0.002220035	55
2	291498	0.002220547	57
2	291567	0.002221059	57
2	291628	0.002221571	58
2	291973	0.002224131	55
2	292034	0.002224643	57
2	292103	0.002225155	57
2	292164	0.002225667	58
2	292509	0.002228227	55
2	292570	0.002228739	57
2	292639	0.002229251	57
2	292700	0.002229763	58
2	293045	0.002232323	55
2	293106	0.002232835	57
2	293175	0.002233347	57
2	293236	0.002233859	58
2	293581	0.002236419	55
2	293642	0.002236931	57
2	293711	0.002237443	57
2	293772	0.002237955	58
2	294117	0.002240515	55
2	294178	0.002241027	57
2	294247	0.002241539	57
2	294308	0.002242051	58
2	294653	0.002244611	55
2	294714	0.002245123	57
2	294783	0.002245635	57
2	294844	0.002246147	58
2	295189	0.002248707	55
2	295250	0.002249219	57
2	295319	0.002249731	57
2	295380	0.002250243	58
2	295725	0.002252803	55
2	295786	0.002253315	57
2	295855	0.002253827	57
2	295922	0.002254339	58
2	296267	0.002256899	55
2	296328	0.002257411	57
2	296397	0.002257923	57
2	296458	0.002258435	58
2	296803	0.002260995	55
2	296864	0.002261507	57
2	296933	0.002262019	57
2	296994	0.002262531	58
2	297339	0.002265091	55
2	297400	0.002265603	57
2	297469	0.002266115	57
2	297530	0.002266627	58
2	297875	0.002269187	55
2	297936	0.002269699	57
2	298005	0.002270211	57
2	298066	0.002270723	58
2	298411	0.002273283	55
2	298472	0.002273795	57
2	298541	0.002274307	57
2	298602	0.002274819	58
2	298947	0.002277379	55
2	299008	0.002277891	57
2	299077	0.002278403	57
2	299138	0.002278915	58
2	299483	0.002281475	55
2	299544	0.002281987	57
2	299613	0.002282499	57
2	299674	0.002283011	58
2	300019	0.002285571	55
2	300080	0.002286083	57
2	300149	0.002286595	57
2	300210	0.002287107	58
2	300555	0.002289667	55
2	300616	0.002290179	57
2	300685	0.002290691	57
2	300746	0.002291203	58
2	301091	0.002293763	55
2	301152	0.002294275	57
2	301221	0.002294787	57
2	301282	0.002295299	58
2	301627	0.002297859	55
2	301688	0.002298371	57
2	301757	0.002298883	57
2	301818	0.002299395	58
2	302163	0.002301955	55
2	302224	0.002302467	57
2	302293	0.002302979	57
2	302360	0.002303491	58
2	302705	0.002306051	55
2	302766	0.002306563	57
2	302835	0.002307075	57
2	302896	0.002307587	58
2	303241	0.002310147	55
2	303302	0.002310659	57
2	303371	0.002311171	57
2	303432	0.002311683	58
2	303777	0.002314243	55
2	303838	0.002314755	57
2	303907	0.002315267	57
2	303968	0.002315779	58
2	304313	0.002318339	55
2	304374	0.002318851	57
2	304443	0.002319363	57
2	304504	0.002319875	58
2	304849	0.002322435	55
2	304910	0.002322947	57
2	304979	0.002323459	57
2	305040	0.002323971	58
2	305385	0.002326531	55
2	305446	0.002327043	57
2	305515	0.002327555	57
2	305576	0.002328067	58
2	305921	0.002330627	55
2	305982	0.002331139	57
2	306051	0.002331651	57
2	306112	0.002332163	58
2	306457	0.002334723	55
2	306518	0.002335235	57
2	306587	0.002335747	57
2	306648	0.002336259	58
2	306993	0.002338819	55
2	307054	0.002339331	57
2	307123	0.002339843	57
2	307184	0.002340355	58
2	307529	0.002342915	55
2	307590	0.002343427	57
2	307659	0.002343939	57
2	307720	0.002344451	58
2	308065	0.002347011	55
2	308126	0.002347523	57
2	308195	0.002348035	57
2	308256	0.002348547	58
2	308601	0.002351107	55
2	308662	0.002351619	57
2	308737	0.002352131	57
2	308798	0.002352643	58
2	309143	0.002355203	55
2	309204	0.002355715	57
2	309273	0.002356227	57
2	309334	0.002356739	58
2	309679	0.002359299	55
2	309740	0.002359811	57
2	309809	0.002360323	57
2	309870	0.002360835	58
2	310215	0.002363395	55
2	310276	0.002363907	57
2	310345	0.002364419	57
2	310406	0.002364931	58
2	310751	0.002367491	55
2	310812	0.002368003	57
2	310881	0.002368515	57
2	310942	0.002369027	58
2	311287	0.002371587	55
2	311348	0.002372099	57
2	311417	0.002372611	57
2	311478	0.002373123	58
2	311823	0.002375683	55
2	311884	0.002376195	57
2	311953	0.002376707	57
2	312014	0.002377219	58
2	312359	0.002379779	55
2	312420	0.002380291	57
2	312489	0.002380803	57
2	312550	0.002381315	58
2	312895	0.002383875	55
2	312956	0.002384387	57
2	313025	0.002384899	57
2	313086	0.002385411	58
2	313431	0.002387971	55
2	313492	0.002388483	57
2	313561	0.002388995	57
2	313622	0.002389507	58
2	313967	0.002392067	55
2	314028	0.002392579	57
2	314097	0.002393091	57
2	314158	0.002393603	58
2	314503	0.002396163	55
2	314564	0.002396675	57
2	314633	0.002397187	57
2	314694	0.002397699	58
2	315039	0.002400259	55
2	315100	0.002400771	57
2	315175	0.002401283	57
2	315236	0.002401795	58
2	315581	0.002404355	55
2	315642	0.002404867	57
2	315711	0.002405379	57
2	315772	0.002405891	58
2	316117	0.002408451	55
2	316178	0.002408963	57
2	316247	0.002409475	57
2	316308	0.002409987	58
2	316653	0.002412547	55
2	316714	0.002413059	57
2	316783	0.002413571	57
2	316844	0.002414083	58
2	317189	0.002416643	55
2	317250	0.002417155	57
2	317319	0.002417667	57
2	317380	0.002418179	58
2	317725	0.002420739	55
2	317786	0.002421251	57
2	317855	0.002421763	57
2	317916	0.002422275	58
2	318261	0.002424835	55
2	318322	0.002425347	57
2	318391	0.002425859	57
2	318452	0.002426371	58
2	318797	0.002428931	55
2	318858	0.002429443	57
2	318927	0.002429955	57
2	318988	0.002430467	58
2	319333	0.002433027	55
2	319394	0.002433539	57
2	319463	0.002434051	57
2	319524	0.002434563	58
2	319869	0.002437123	55
2	319930	0.002437635	57
2	319999	0.002438147	57
2	320060	0.002438659	58
2	320405	0.002441219	55
2	320466	0.002441731	57
2	320535	0.002442243	57
2	320596	0.002442755	58
2	320941	0.002445315	55
2	321002	0.002445827	57
2	321071	0.002446339	57
2	321132	0.002446851	58
2	321477	0.002449411	55
2	321538	0.002449923	57
2	321613	0.002450435	57
2	321674	0.002450947	58
2	322019	0.002453507	55
2	322080	0.002454019	57
2	322149	0.002454531	57
2	322210	0.002455043	58
2	322555	0.002457603	55
2	322616	0.002458115	57
2	322685	0.002458627	57
2	322746	0.002459139	58
2	323091	0.002461699	55
2	323152	0.002462211	57
2	323221	0.002462723	57
2	323282	0.002463235	58
2	323627	0.002465795	55
2	323688	0.002466307	57
2	323757	0.002466819	57
2	323818	0.002467331	58
2	324163	0.002469891	55
2	324224	0.002470403	57
2	324293	0.002470915	57
2	324354	0.002471427	58
2	324699	0.002473987	55
2	324760	0.002474499	57
2	324829	0.002475011	57
2	324890	0.002475523	58
2	325235	0.002478083	55
2	325296	0.002478595	57
2	325365	0.002479107	57
2	325426	0.002479619	58
2	325771	0.002482179	55
2	325832	0.002482691	57
2	325901	0.002483203	57
2	325962	0.002483715	58
2	326307	0.002486275	55
2	326368	0.002486787	57
2	326437	0.002487299	57
2	326498	0.002487811	58
2	326843	0.002490371	55
2	326904	0.002490883	57
2	326973	0.002491395	57
2	327034	0.002491907	58
2	327379	0.002494467	55
2	327440	0.002494979	57
2	327509	0.002495491	57
2	327570	0.002496003	58
2	327915	0.002498563	55
2	327982	0.002499075	57
2	328051	0.002499587	57
2	328112	0.002500099	58
2	328457	0.002502659	55
2	328518	0.002503171	57
2	328587	0.002503683	57
2	328648	0.002504195	58
2	328993	0.002506755	55
2	329054	0.002507267	57
2	329123	0.002507779	57
2	329184	0.002508291	58
2	329529	0.002510851	55
2	329590	0.002511363	57
2	329659	0.002511875	57
2	329720	0.002512387	58
2	330065	0.002514947	55
2	330126	0.002515459	57
2	330195	0.002515971	57
2	330256	0.002516483	58
2	330601	0.002519043	55
2	330662	0.002519555	57
2	330731	0.002520067	57
2	330792	0.002520579	58
2	331137	0.002523139	55
2	331198	0.002523651	57
2	331267	0.002524163	57
2	331328	0.002524675	58
2	331673	0.002527235	55
2	331734	0.002527747	57
2	331803	0.002528259	57
2	331864	0.002528771	58
2	332209	0.002531331	55
2	332270	0.002531843	57
2	332339	0.002532355	57
2	332400	0.002532867	58
2	332745	0.002535427	55
2	332806	0.002535939	57
2	332875	0.002536451	57
2	332936	0.002536963	58
2	333281	0.002539523	55
2	333342	0.002540035	57
2	333411	0.002540547	57
2	333472	0.002541059	58
2	333817	0.002543619	55
2	333878	0.002544131	57
2	333947	0.002544643	57
2	334008	0.002545155	58
2	334353	0.002547715	55
2	334420	0.002548227	57
2	334489	0.002548739	57
2	334550	0.002549251	58
2	334895	0.002551811	55
2	334956	0.002552323	57
2	335025	0.002552835	57
2	335086	0.002553347	58
2	335431	0.002555907	55
2	335492	0.002556419	57
2	335561	0.002556931	57
2	335622	0.002557443	58
2	335967	0.002560003	55
2	336028	0.002560515	57
2	336097	0.002561027	57
2	336158	0.002561539	58
2	336503	0.002564099	55
2	336564	0.002564611	57
2	336633	0.002565123	57
2	336694	0.002565635	58
2	337039	0.002568195	55
2	337100	0.002568707	57
2	337169	0.002569219	57
2	337230	0.002569731	58
2	337575	0.002572291	55
2	337636	0.002572803	57
2	337705	0.002573315	57
2	337766	0.002573827	58
2	338111	0.002576387	55
2	338172	0.002576899	57
2	338241	0.002577411	57
2	338302	0.002577923	58
2	338647	0.002580483	55
2	338708	0.002580995	57
2	338777	0.002581507	57
2	338838	0.002582019	58
2	339183	0.002584579	55
2	339244	0.002585091	57
2	339313	0.002585603	57
2	339374	0.002586115	58
2	339719	0.002588675	55
2	339780	0.002589187	57
2	339849	0.002589699	57
2	339910	0.002590211	58
2	340255	0.002592771	55
2	340316	0.002593283	57
2	340385	0.002593795	57
2	340446	0.002594307	58
2	340791	0.002596867	55
2	340858	0.002597379	57
2	340927	0.002597891	57
2	340988	0.002598403	58
2	341333	0.002600963	55
2	341394	0.002601475	57
2	341463	0.002601987	57
2	341524	0.002602499	58
2	341869	0.002605059	55
2	341930	0.002605571	57
2	341999	0.002606083	57
2	342060	0.002606595	58
2	342405	0.002609155	55
2	342466	0.002609667	57
2	342535	0.002610179	57
2	342596	0.002610691	58
2	342941	0.002613251	55
2	343002	0.002613763	57
2	343071	0.002614275	57
2	343132	0.002614787	58
2	343477	0.002617347	55
2	343538	0.002617859	57
2	343607	0.002618371	57
2	343668	0.002618883	58
2	344013	0.002621443	55
2	344074	0.002621955	57
2	344143	0.002622467	57
2	344204	0.002622979	58
2	344549	0.002625539	55
2	344610	0.002626051	57
2	344679	0.002626563	57
2	344740	0.002627075	58
2	345085	0.002629635	55
2	345146	0.002630147	57
2	345215	0.002630659	57
2	345276	0.002631171	58
2	345621	0.002633731	55
2	345682	0.002634243	57
2	345751	0.002634755	57
2	345812	0.002635267	58
2	346157	0.002637827	55
2	346218	0.002638339	57
2	346287	0.002638851	57
2	346348	0.002639363	58
2	346693	0.002641923	55
2	346754	0.002642435	57
2	346823	0.002642947	57
2	346884	0.002643459	58
2	347235	0.002646019	55
2	347296	0.002646531	57
2	347365	0.002647043	57
2	347426	0.002647555	58
2	347771	0.002650115	55
2	347832	0.002650627	57
2	347901	0.002651139	57
2	347962	0.002651651	58
2	348307	0.002654211	55
2	348368	0.002654723	57
2	348436	0.002655235	57
2	348498	0.002655747	58
2	348843	0.002658307	55
2	348904	0.002658819	57
2	348972	0.002659331	57
2	349034	0.002659843	58
2	349379	0.002662403	55
2	349440	0.002662915	57
2	349508	0.002663427	57
2	349570	0.002663939	58
2	349915	0.002666499	55
2	349976	0.002667011	57
2	350044	0.002667523	57
2	350106	0.002668035	58
2	350451	0.002670595	55
2	350512	0.002671107	57
2	350580	0.002671619	57
2	350642	0.002672131	58
2	350987	0.002674691	55
2	351048	0.002675203	57
2	351116	0.002675715	57
2	351178	0.002676227	58
2	351523	0.002678787	55
2	351584	0.002679299	57
2	351652	0.002679811	57
2	351714	0.002680323	58
2	352059	0.002682883	55
2	352120	0.002683395	57
2	352188	0.002683907	57
2	352250	0.002684419	58
2	352595	0.002686979	55
2	352656	0.002687491	57
2	352724	0.002688003	57
2	352786	0.002688515	58
2	353131	0.002691075	55
2	353192	0.002691587	57
2	353260	0.002692099	57
2	353322	0.002692611	58
2	353673	0.002695171	55
2	353734	0.002695683	57
2	353802	0.002696195	57
2	353864	0.002696707	58
2	354209	0.002699267	55
2	354269	0.002699779	57
2	354337	0.002700291	57
2	354399	0.002700803	58
2	354744	0.002703363	55
2	354805	0.002703875	57
2	354873	0.002704387	57
2	354935	0.002704899	58
2	355280	0.002707459	55
2	355341	0.002707971	57
2	355409	0.002708483	57
2	355471	0.002708995	58
2	355816	0.002711555	55
2	355877	0.002712067	57
2	355945	0.002712579	57
2	356007	0.002713091	58
2	356352	0.002715651	55
2	356413	0.002716163	57
2	356481	0.002716675	57
2	356543	0.002717187	58
2	356888	0.002719747	55
2	356949	0.002720259	57
2	357017	0.002720771	57
2	357079	0.002721283	58
2	357424	0.002723843	55
2	357485	0.002724355	57
2	357553	0.002724867	57
2	357615	0.002725379	58
2	357960	0.002727939	55
2	358021	0.002728451	57
2	358089	0.002728963	57
2	358151	0.002729475	58
2	358496	0.002732035	55
2	358557	0.002732547	57
2	358625	0.002733059	57
2	358687	0.002733571	58
2	359032	0.002736131	55
2	359093	0.002736643	57
2	359161	0.002737155	57
2	359223	0.002737667	58
2	359569	0.002740227	55
2	359624	0.002740739	57
2	359693	0.002741251	57
2	359755	0.002741763	58
2	360108	0.002744323	55
2	360166	0.002744835	57
2	360233	0.002745347	57
2	360294	0.002745859	58
2	360639	0.002748419	55
2	360700	0.002748931	57
2	360768	0.002749443	57
2	360830	0.002749955	58
2	361175	0.002752515	55
2	361236	0.002753027	57
2	361304	0.002753539	57
2	361366	0.002754051	58
2	361711	0.002756611	55
2	361772	0.002757123	57
2	361840	0.002757635	57
2	361902	0.002758147	58
2	362247	0.002760707	55
2	362308	0.002761219	57
2	362376	0.002761731	57
2	362438	0.002762243	58
2	362783	0.002764803	55
2	362844	0.002765315	57
2	362912	0.002765827	57
2	362974	0.002766339	58
2	363319	0.002768899	55
2	363380	0.002769411	57
2	363448	0.002769923	57
2	363510	0.002770435	58
2	363855	0.002772995	55
2	363916	0.002773507	57
2	363984	0.002774019	57
2	364046	0.002774531	58
2	364391	0.002777091	55
2	364452	0.002777603	57
2	364520	0.002778115	57
2	364582	0.002778627	58
2	364927	0.002781187	55
2	364988	0.002781699	57
2	365056	0.002782211	57
2	365118	0.002782723	58
2	365463	0.002785283	55
2	365524	0.002785795	57
2	365592	0.002786307	57
2	365654	0.002786819	58
2	365999	0.002789379	55
2	366060	0.002789891	57
2	366128	0.002790403	57
2	366190	0.002790915	58
2	366541	0.002793475	55
2	366602	0.002793987	57
2	366670	0.002794499	57
2	366732	0.002795011	58
2	367077	0.002797571	55
2	367138	0.002798083	57
2	367206	0.002798595	57
2	367268	0.002799107	58
2	367613	0.002801667	55
2	367674	0.002802179	57
2	367734	0.002802691	58
2	367803	0.002803203	58
2	368148	0.002805763	55
2	368210	0.002806275	57
2	368270	0.002806787	58
2	368339	0.002807299	58
2	368684	0.002809859	55
2	368746	0.002810371	57
2	368806	0.002810883	58
2	368875	0.002811395	58
2	369220	0.002813955	55
2	369282	0.002814467	57
2	369342	0.002814979	58
2	369411	0.002815491	58
2	369756	0.002818051	55
2	369818	0.002818563	57
2	369878	0.002819075	58
2	369947	0.002819587	58
2	370292	0.002822147	55
2	370354	0.002822659	57
2	370414	0.002823171	58
2	370483	0.002823683	58
2	370828	0.002826243	55
2	370890	0.002826755	57
2	370950	0.002827267	58
2	371019	0.002827779	58
2	371364	0.002830339	55
2	371426	0.002830851	57
2	371486	0.002831363	58
2	371555	0.002831875	58
2	371900	0.002834435	55
2	371962	0.002834947	57
2	372022	0.002835459	58
2	372091	0.002835971	58
2	372436	0.002838531	55
2	372498	0.002839043	57
2	372558	0.002839555	58
2	372627	0.002840067	58
2	372978	0.002842627	55
2	373020	0.002843139	57
2	373080	0.002843651	58
2	373149	0.002844163	58
2	373495	0.002846723	55
2	373555	0.002847235	57
2	373615	0.002847747	58
2	373684	0.002848259	58
2	374029	0.002850819	55
2	374091	0.002851331	57
2	374151	0.002851843	58
2	374220	0.002852355	58
2	374565	0.002854915	55
2	374627	0.002855427	57
2	374687	0.002855939	58
2	374756	0.002856451	58
2	375101	0.002859011	55
2	375163	0.002859523	57
2	375223	0.002860035	58
2	375292	0.002860547	58
2	375637	0.002863107	55
2	375699	0.002863619	57
2	375759	0.002864131	58
2	375828	0.002864643	58
2	376173	0.002867203	55
2	376235	0.002867715	57
2	376295	0.002868227	58
2	376364	0.002868739	58
2	376709	0.002871299	55
2	376771	0.002871811	57
2	376831	0.002872323	58
2	376900	0.002872835	58
2	377245	0.002875395	55
2	377307	0.002875907	57
2	377367	0.002876419	58
2	377436	0.002876931	58
2	377781	0.002879491	55
2	377843	0.002880003	57
2	377903	0.002880515	58
2	377972	0.002881027	58
2	378317	0.002883587	55
2	378379	0.002884099	57
2	378439	0.002884611	58
2	378508	0.002885123	58
2	378853	0.002887683	55
2	378915	0.002888195	57
2	378975	0.002888707	58
2	379044	0.002889219	58
2	379395	0.002891779	55
2	379457	0.002892291	57
2	379517	0.002892803	58
2	379586	0.002893315	58
2	379931	0.002895875	55
2	379993	0.002896387	57
2	380053	0.002896899	58
2	380122	0.002897411	58
2	380467	0.002899971	55
2	380529	0.002900483	57
2	380589	0.002900995	58
2	380658	0.002901507	58
2	381003	0.002904067	55
2	381065	0.002904579	57
2	381125	0.002905091	58
2	381194	0.002905603	58
2	381539	0.002908163	55
2	381601	0.002908675	57
2	381661	0.002909187	58
2	381730	0.002909699	58
2	382075	0.002912259	55
2	382137	0.002912771	57
2	382197	0.002913283	58
2	382266	0.002913795	58
2	382611	0.002916355	55
2	382673	0.002916867	57
2	382733	0.002917379	58
2	382802	0.002917891	58
2	383147	0.002920451	55
2	383209	0.002920963	57
2	383269	0.002921475	58
2	383338	0.002921987	58
2	383683	0.002924547	55
2	383745	0.002925059	57
2	383805	0.002925571	58
2	383874	0.002926083	58
2	384219	0.002928643	55
2	384281	0.002929155	57
2	384341	0.002929667	58
2	384410	0.002930179	58
2	384755	0.002932739	55
2	384817	0.002933251	57
2	384877	0.002933763	58
2	384946	0.002934275	58
2	385291	0.002936835	55
2	385353	0.002937347	57
2	385413	0.002937859	58
2	385482	0.002938371	58
2	385833	0.002940931	55
2	385895	0.002941443	57
2	385955	0.002941955	58
2	386024	0.002942467	58
2	386365	0.002945027	56
2	386422	0.002945539	57
2	386491	0.002946051	57
2	386549	0.002946563	58
2	386888	0.002949123	55
2	386946	0.002949635	57
2	387015	0.002950147	57
2	387076	0.002950659	58
2	387421	0.002953219	55
2	387482	0.002953731	57
2	387551	0.002954243	57
2	387612	0.002954755	58
2	387957	0.002957315	55
2	388018	0.002957827	57
2	388087	0.002958339	57
2	388148	0.002958851	58
2	388493	0.002961411	55
2	388554	0.002961923	57
2	388623	0.002962435	57
2	388684	0.002962947	58
2	389029	0.002965507	55
2	389090	0.002966019	57
2	389159	0.002966531	57
2	389220	0.002967043	58
2	389565	0.002969603	55
2	389626	0.002970115	57
2	389695	0.002970627	57
2	389756	0.002971139	58
2	390101	0.002973699	55
2	390162	0.002974211	57
2	390231	0.002974723	57
2	390292	0.002975235	58
2	390637	0.002977795	55
2	390698	0.002978307	57
2	390767	0.002978819	57
2	390828	0.002979331	58
2	391173	0.002981891	55
2	391234	0.002982403	57
2	391303	0.002982915	57
2	391364	0.002983427	58
2	391709	0.002985987	55
2	391770	0.002986499	57
2	391839	0.002987011	57
2	391900	0.002987523	58
2	392251	0.002990083	55
2	392312	0.002990595	57
2	392381	0.002991107	57
2	392442	0.002991619	58
2	392787	0.002994179	55
2	392848	0.002994691	57
2	392917	0.002995203	57
2	392978	0.002995715	58
2	393323	0.002998275	55
2	393384	0.002998787	57
2	393453	0.002999299	57
2	393514	0.002999811	58
2	393859	0.003002371	55
2	393920	0.003002883	57
2	393989	0.003003395	57
2	394050	0.003003907	58
2	394395	0.003006467	55
2	394456	0.003006979	57
2	394525	0.003007491	57
2	394586	0.003008003	58
2	394931	0.003010563	55
2	394992	0.003011075	57
2	395061	0.003011587	57
2	395122	0.003012099	58
2	395467	0.003014659	55
2	395528	0.003015171	57
2	395597	0.003015683	57
2	395658	0.003016195	58
2	396003	0.003018755	55
2	396064	0.003019267	57
2	396133	0.003019779	57
2	396194	0.003020291	58
2	396539	0.003022851	55
2	396600	0.003023363	57
2	396669	0.003023875	57
2	396730	0.003024387	58
2	397075	0.003026947	55
2	397136	0.003027459	57
2	397205	0.003027971	57
2	397266	0.003028483	58
2	397611	0.003031043	55
2	397672	0.003031555	57
2	397741	0.003032067	57
2	397802	0.003032579	58
2	398147	0.003035139	55
2	398208	0.003035651	57
2	398277	0.003036163	57
2	398338	0.003036675	58
2	398689	0.003039235	55
2	398750	0.003039747	57
2	398819	0.003040259	57
2	398880	0.003040771	58
2	399225	0.003043331	55
2	399286	0.003043843	57
2	399355	0.003044355	57
2	399416	0.003044867	58
2	399761	0.003047427	55
2	399822	0.003047939	57
2	399891	0.003048451	57
2	399952	0.003048963	58
2	400297	0.003051523	55
2	400358	0.003052035	57
2	400427	0.003052547	57
2	400488	0.003053059	58
2	400833	0.003055619	55
2	400894	0.003056131	57
2	400963	0.003056643	57
2	401024	0.003057155	58
2	401369	0.003059715	55
2	401430	0.003060227	57
2	401499	0.003060739	57
2	401560	0.003061251	58
2	401905	0.003063811	55
2	401966	0.003064323	57
2	402035	0.003064835	57
2	402096	0.003065347	58
2	402441	0.003067907	55
2	402502	0.003068419	57
2	402571	0.003068931	57
2	402632	0.003069443	58
2	402977	0.003072003	55
2	403038	0.003072515	57
2	403107	0.003073027	57
2	403168	0.003073539	58
2	403513	0.003076099	55
2	403574	0.003076611	57
2	403643	0.003077123	57
2	403704	0.003077635	58
2	404049	0.003080195	55
2	404110	0.003080707	57
2	404179	0.003081219	57
2	404240	0.003081731	58
2	404585	0.003084291	55
2	404646	0.003084803	57
2	404715	0.003085315	57
2	404776	0.003085827	58
2	405127	0.003088387	55
2	405188	0.003088899	57
2	405257	0.003089411	57
2	405318	0.003089923	58
2	405663	0.003092483	55
2	405724	0.003092995	57
2	405793	0.003093507	57
2	405854	0.003094019	58
2	406199	0.003096579	55
2	406260	0.003097091	57
2	406329	0.003097603	57
2	406390	0.003098115	58
2	406735	0.003100675	55
2	406796	0.003101187	57
2	406865	0.003101699	57
2	406926	0.003102211	58
2	407271	0.003104771	55
2	407332	0.003105283	57
2	407401	0.003105795	57
2	407462	0.003106307	58
2	407807	0.003108867	55
2	407868	0.003109379	57
2	407937	0.003109891	57
2	407998	0.003110403	58
2	408343	0.003112963	55
2	408404	0.003113475	57
2	408473	0.003113987	57
2	408534	0.003114499	58
2	408879	0.003117059	55
2	408940	0.003117571	57
2	409009	0.003118083	57
2	409070	0.003118595	58
2	409415	0.003121155	55
2	409476	0.003121667	57
2	409545	0.003122179	57
2	409606	0.003122691	58
2	409951	0.003125251	55
2	410012	0.003125763	57
2	410081	0.003126275	57
2	410142	0.003126787	58
2	410487	0.003129347	55
2	410548	0.003129859	57
2	410617	0.003130371	57
2	410678	0.003130883	58
2	411023	0.003133443	55
2	411084	0.003133955	57
2	411153	0.003134467	57
2	411214	0.003134979	58
2	411565	0.003137539	55
2	411626	0.003138051	57
2	411695	0.003138563	57
2	411756	0.003139075	58
2	412101	0.003141635	55
2	412162	0.003142147	57
2	412231	0.003142659	57
2	412292	0.003143171	58
2	412637	0.003145731	55
2	412698	0.003146243	57
2	412767	0.003146755	57
2	412828	0.003147267	58
2	413173	0.003149827	55
2	413234	0.003150339	57
2	413303	0.003150851	57
2	413364	0.003151363	58
2	413709	0.003153923	55
2	413770	0.003154435	57
2	413839	0.003154947	57
2	413900	0.003155459	58
2	414245	0.003158019	55
2	414306	0.003158531	57
2	414375	0.003159043	57
2	414436	0.003159555	58
2	414781	0.003162115	55
2	414842	0.003162627	57
2	414911	0.003163139	57
2	414972	0.003163651	58
2	415317	0.003166211	55
2	415378	0.003166723	57
2	415447	0.003167235	57
2	415508	0.003167747	58
2	415853	0.003170307	55
2	415914	0.003170819	57
2	415983	0.003171331	57
2	416044	0.003171843	58
2	416389	0.003174403	55
2	416450	0.003174915	57
2	416519	0.003175427	57
2	416580	0.003175939	58
2	416925	0.003178499	55
[...]
25	1409887	0.010729791	0.000267263
25	1409926	0.010730303	0.000267775
25	1409957	0.010730815	0.000268287
25	1409994	0.010731327	0.000268799
25	1411359	0.010740549	0.000267509
25	1411419	0.010741061	0.000268021
25	1411450	0.010741573	0.000268533
25	1411484	0.010742085	0.000269045
25	1411518	0.010742597	0.000269557
25	1411549	0.010743109	0.000270069
25	1411580	0.010743621	0.000270581
25	1411835	0.010744135	0.000271095
25	1411874	0.010744647	0.000271607
25	1411929	0.010745159	0.000272119
25	1411960	0.010745671	0.000272631
25	1411999	0.010746183	0.000273143
25	1412038	0.010746695	0.000273655
25	1412069	0.010747207	0.000274167
25	1412100	0.010747719	0.000274679
25	1413465	0.010756941	0.000273389
25	1413525	0.010757453	0.000273901
25	1413556	0.010757965	0.000274413
25	1413590	0.010758477	0.000274925
25	1413624	0.010758989	0.000275437
25	1413655	0.010759501	0.000275949
25	1413686	0.010760013	0.000276461
25	1413941	0.010760527	0.000276975
25	1413980	0.010761039	0.000277487
25	1414035	0.010761551	0.000277999
25	1414066	0.010762063	0.000278511
25	1414105	0.010762575	0.000276302
25	1414144	0.010763087	0.000276814
25	1414175	0.010763599	0.000277326
25	1414206	0.010764111	0.000277838
25	1415571	0.010773333	0.000278868
25	1415631	0.010773845	0.00027938
25	1415662	0.010774357	0.000279892
25	1415696	0.010774869	0.000276308
25	1415730	0.010775381	0.00027682
25	1415761	0.010775893	0.000277332
25	1415792	0.010776405	0.000277844
25	1416047	0.010776919	0.000278358
25	1416086	0.010777431	0.00027887
25	1416141	0.010777943	0.000279382
25	1416172	0.010778455	0.000279894
25	1416211	0.010778967	0.00027631
25	1416250	0.010779479	0.000276822
25	1416281	0.010779991	0.000277334
25	1416318	0.010780503	0.000277846
25	1417683	0.010789725	0.000278876
25	1417743	0.010790237	0.000279388
25	1417774	0.010790749	0.0002799
25	1417808	0.010791261	0.000276316
25	1417842	0.010791773	0.000276828
25	1417873	0.010792285	0.00027734
25	1417904	0.010792797	0.000277852
25	1418159	0.010793311	0.000278366
25	1418198	0.010793823	0.000278878
25	1418253	0.010794335	0.00027939
25	1418284	0.010794847	0.000279902
25	1418323	0.010795359	0.000276318
25	1418362	0.010795871	0.00027683
25	1418393	0.010796383	0.000277342
25	1418424	0.010796895	0.000277854
25	1419789	0.010806117	0.000278884
25	1419849	0.010806629	0.000279396
25	1419880	0.010807141	0.000279908
25	1419914	0.010807653	0.000276324
25	1419948	0.010808165	0.000276836
25	1419979	0.010808677	0.000277348
25	1420010	0.010809189	0.00027786
25	1420265	0.010809703	0.000278374
25	1420304	0.010810215	0.000278886
25	1420359	0.010810727	0.000279398
25	1420390	0.010811239	0.00027991
25	1420429	0.010811751	0.000276326
25	1420468	0.010812263	0.000276838
25	1420499	0.010812775	0.00027735
25	1420530	0.010813287	0.000277862
25	1421895	0.010822509	0.000278892
25	1421955	0.010823021	0.000279404
25	1421986	0.010823533	0.000279916
25	1422020	0.010824045	0.000276332
25	1422054	0.010824557	0.000276844
25	1422085	0.010825069	0.000277356
25	1422116	0.010825581	0.000277868
25	1422371	0.010826095	0.000278382
25	1422410	0.010826607	0.000278894
25	1422465	0.010827119	0.000279406
25	1422496	0.010827631	0.000279918
25	1422535	0.010828143	0.000276334
25	1422574	0.010828655	0.000276846
25	1422611	0.010829167	0.000277358
25	1422642	0.010829679	0.00027787
25	1424007	0.010838901	0.0002789
25	1424067	0.010839413	0.000279412
25	1424098	0.010839925	0.000279924
25	1424132	0.010840437	0.00027634
25	1424166	0.010840949	0.000276852
25	1424197	0.010841461	0.000277364
25	1424228	0.010841973	0.000277876
25	1424483	0.010842487	0.00027839
25	1424522	0.010842999	0.000278902
25	1424577	0.010843511	0.000279414
25	1424608	0.010844023	0.000279926
25	1424647	0.010844535	0.000276342
25	1424686	0.010845047	0.000276854
25	1424717	0.010845559	0.000277366
25	1424748	0.010846071	0.000277878
25	1426113	0.010855293	0.000278908
25	1426173	0.010855805	0.00027942
25	1426204	0.010856317	0.000279932
25	1426238	0.010856829	0.000276348
25	1426272	0.010857341	0.00027686
25	1426303	0.010857853	0.000277372
25	1426334	0.010858365	0.000277884
25	1426589	0.010858879	0.000278398
25	1426628	0.010859391	0.00027891
25	1426683	0.010859903	0.000279422
25	1426714	0.010860415	0.000279934
25	1426753	0.010860927	0.00027635
25	1426792	0.010861439	0.000276862
25	1426823	0.010861951	0.000277374
25	1426854	0.010862463	0.000277886
25	1428219	0.010871685	0.000278916
25	1428279	0.010872197	0.000279428
25	1428310	0.010872709	0.00027994
25	1428344	0.010873221	0.000276356
25	1428378	0.010873733	0.000276868
25	1428409	0.010874245	0.00027738
25	1428440	0.010874757	0.000277892
25	1428695	0.010875271	0.000278406
25	1428734	0.010875783	0.000278918
25	1428789	0.010876295	0.00027943
25	1428820	0.010876807	0.000279942
25	1428859	0.010877319	0.000276358
25	1428898	0.010877831	0.00027687
25	1428935	0.010878343	0.000277382
25	1428966	0.010878855	0.000277894
25	1430331	0.010888077	0.000278924
25	1430391	0.010888589	0.000279436
25	1430422	0.010889101	0.000279948
25	1430456	0.010889613	0.000276364
25	1430490	0.010890125	0.000276876
25	1430521	0.010890637	0.000277388
25	1430552	0.010891149	0.0002779
25	1430807	0.010891663	0.000278414
25	1430846	0.010892175	0.000278926
25	1430901	0.010892687	0.000279438
25	1430932	0.010893199	0.00027995
25	1430971	0.010893711	0.000276366
25	1431010	0.010894223	0.000276878
25	1431041	0.010894735	0.00027739
25	1431072	0.010895247	0.000277902
25	1432437	0.010904469	0.000278932
25	1432497	0.010904981	0.000279444
25	1432528	0.010905493	0.000279956
25	1432562	0.010906005	0.000276372
25	1432596	0.010906517	0.000276884
25	1432627	0.010907029	0.000277396
25	1432658	0.010907541	0.000277908
25	1432913	0.010908055	0.000278422
25	1432952	0.010908567	0.000278934
25	1433007	0.010909079	0.000279446
25	1433038	0.010909591	0.000279958
25	1433077	0.010910103	0.000276374
25	1433116	0.010910615	0.000276886
25	1433147	0.010911127	0.000277398
25	1433178	0.010911639	0.00027791
25	1434543	0.010920861	0.00027894
25	1434603	0.010921373	0.000279452
25	1434634	0.010921885	0.000279964
25	1434668	0.010922397	0.00027638
25	1434702	0.010922909	0.000276892
25	1434733	0.010923421	0.000277404
25	1434764	0.010923933	0.000277916
25	1435019	0.010924447	0.00027843
25	1435058	0.010924959	0.000278942
25	1435113	0.010925471	0.000279454
25	1435144	0.010925983	0.000279966
25	1435183	0.010926495	0.000276382
25	1435228	0.010927007	0.000276894
25	1435259	0.010927519	0.000277406
25	1435290	0.010928031	0.000277918
25	1436655	0.010937253	0.000278948
25	1436715	0.010937765	0.00027946
25	1436746	0.010938277	0.000279972
25	1436780	0.010938789	0.000276388
25	1436814	0.010939301	0.0002769
25	1436845	0.010939813	0.000277412
25	1436876	0.010940325	0.000277924
25	1437131	0.010940839	0.000278438
25	1437170	0.010941351	0.00027895
25	1437225	0.010941863	0.000279462
25	1437256	0.010942375	0.000279974
25	1437295	0.010942887	0.00027639
25	1437334	0.010943399	0.000276902
25	1437365	0.010943911	0.000277414
25	1437396	0.010944423	0.000277926
25	1438761	0.010953645	0.000278956
25	1438821	0.010954157	0.000279468
25	1438852	0.010954669	0.00027998
25	1438886	0.010955181	0.000276396
25	1438920	0.010955693	0.000276908
25	1438951	0.010956205	0.00027742
25	1438982	0.010956717	0.000277932
25	1439237	0.010957231	0.000278446
25	1439276	0.010957743	0.000278958
25	1439331	0.010958255	0.00027947
25	1439362	0.010958767	0.000279982
25	1439401	0.010959279	0.000276398
25	1439440	0.010959791	0.00027691
25	1439471	0.010960303	0.000277422
25	1439502	0.010960815	0.000277934
25	1440867	0.010970037	0.000278964
25	1440927	0.010970549	0.000279476
25	1440958	0.010971061	0.000279988
25	1440992	0.010971573	0.000276404
25	1441026	0.010972085	0.000276916
25	1441057	0.010972597	0.000277428
25	1441088	0.010973109	0.00027794
25	1441343	0.010973623	0.000278454
25	1441382	0.010974135	0.000278966
25	1441437	0.010974647	0.000279478
25	1441468	0.010975159	0.00027999
25	1441507	0.010975671	0.000276406
25	1441552	0.010976183	0.000276918
25	1441583	0.010976695	0.00027743
25	1441614	0.010977207	0.000277942
25	1442979	0.010986429	0.000278972
25	1443039	0.010986941	0.000279484
25	1443070	0.010987453	0.000279996
25	1443104	0.010987965	0.000276412
25	1443138	0.010988477	0.000276924
25	1443169	0.010988989	0.000277436
25	1443200	0.010989501	0.000277948
25	1443455	0.010990015	0.000278462
25	1443494	0.010990527	0.000278974
25	1443549	0.010991039	0.000279486
25	1443580	0.010991551	0.000279998
25	1443619	0.010992063	0.000276414
25	1443658	0.010992575	0.000276926
25	1443689	0.010993087	0.000277438
25	1443720	0.010993599	0.00027795
25	1445085	0.011002821	0.00027898
25	1445145	0.011003333	0.000279492
25	1445176	0.011003845	0.000280004
25	1445207	0.011004357	0.00027642
25	1445238	0.011004869	0.000276932
25	1445269	0.011005381	0.000277444
25	1445300	0.011005893	0.000277956
25	1445555	0.011006407	0.00027847
25	1445594	0.011006919	0.000278982
25	1445649	0.011007431	0.000279494
25	1445680	0.011007943	0.000280006
25	1445711	0.011008455	0.000276422
25	1445742	0.011008967	0.000276934
25	1445773	0.011009479	0.000277446
25	1445804	0.011009991	0.000277958
25	1447135	0.011019213	0.000278988
25	1447191	0.011019725	0.0002795
25	1447222	0.011020237	0.000280012
25	1447253	0.011020749	0.000276428
25	1447284	0.011021261	0.00027694
25	1447315	0.011021773	0.000277452
25	1447346	0.011022285	0.000277964
25	1447601	0.011022799	0.000278478
25	1447640	0.011023311	0.00027899
25	1447695	0.011023823	0.000279502
25	1447726	0.011024335	0.000280014
25	1447757	0.011024847	0.00027643
25	1447794	0.011025359	0.000276942
25	1447825	0.011025871	0.000277454
25	1447856	0.011026383	0.000277966
25	1449187	0.011035605	0.000278996
25	1449243	0.011036117	0.000279508
25	1449274	0.011036629	0.00028002
25	1449305	0.011037141	0.000276436
25	1449336	0.011037653	0.000276948
25	1449367	0.011038165	0.00027746
25	1449398	0.011038677	0.000277972
25	1449653	0.011039191	0.000278486
25	1449692	0.011039703	0.000278998
25	1449747	0.011040215	0.00027951
25	1449778	0.011040727	0.000280022
25	1449809	0.011041239	0.000276438
25	1449840	0.011041751	0.00027695
25	1449871	0.011042263	0.000277462
25	1449902	0.011042775	0.000277974
25	1451233	0.011051997	0.000279004
25	1451289	0.011052509	0.000279516
25	1451320	0.011053021	0.000280028
25	1451351	0.011053533	0.000276444
25	1451382	0.011054045	0.000276956
25	1451413	0.011054557	0.000277468
25	1451444	0.011055069	0.00027798
25	1451700	0.011055583	0.000278494
25	1451738	0.011056095	0.000279006
25	1451793	0.011056607	0.000279518
25	1451824	0.011057119	0.00028003
25	1451855	0.011057631	0.000276446
25	1451886	0.011058143	0.000276958
25	1451917	0.011058655	0.00027747
25	1451948	0.011059167	0.000277982
25	1453280	0.011068389	0.000279012
25	1453336	0.011068901	0.000279524
25	1453367	0.011069413	0.000280036
25	1453398	0.011069925	0.000276452
25	1453429	0.011070437	0.000276964
25	1453460	0.011070949	0.000277476
25	1453491	0.011071461	0.000277988
25	1453746	0.011071975	0.000278502
25	1453785	0.011072487	0.000279014
25	1453840	0.011072999	0.000279526
25	1453871	0.011073511	0.000280038
25	1453908	0.011074023	0.000276454
25	1453939	0.011074535	0.000276966
25	1453970	0.011075047	0.000277478
25	1454001	0.011075559	0.00027799
25	1455326	0.011084781	0.00027902
25	1455382	0.011085293	0.000279532
25	1455413	0.011085805	0.000280044
25	1455444	0.011086317	0.00027646
25	1455475	0.011086829	0.000276972
25	1455506	0.011087341	0.000277484
25	1455537	0.011087853	0.000277996
25	1455792	0.011088367	0.00027851
25	1455815	0.011088879	0.000279022
25	1455870	0.011089391	0.000279534
25	1455901	0.011089903	0.000280046
25	1455932	0.011090415	0.000276462
25	1455963	0.011090927	0.000276974
25	1455994	0.011091439	0.000277486
25	1456025	0.011091951	0.000277998
25	1457160	0.011101173	0.000279028
25	1457216	0.011101685	0.00027954
25	1457247	0.011102197	0.000280052
25	1457278	0.011102709	0.000276468
25	1457309	0.011103221	0.00027698
25	1457340	0.011103733	0.000277492
25	1457371	0.011104245	0.000278004
25	1457558	0.011104759	0.000278518
25	1457573	0.011105271	0.00027903
25	1457628	0.011105783	0.000279542
25	1457659	0.011106295	0.000280054
25	1457690	0.011106807	0.00027647
25	1457721	0.011107319	0.000276982
25	1457752	0.011107831	0.000277494
25	1457783	0.011108343	0.000278006
25	1458846	0.011117565	0.000279036
25	1458902	0.011118077	0.000279548
25	1458933	0.011118589	0.00028006
25	1458964	0.011119101	0.000276476
25	1458995	0.011119613	0.000276988
25	1459026	0.011120125	0.0002775
25	1459057	0.011120637	0.000278012
25	1459244	0.011121151	0.000278526
25	1459259	0.011121663	0.000279038
25	1459314	0.011122175	0.00027955
25	1459345	0.011122687	0.000280062
25	1459382	0.011123199	0.000276478
25	1459413	0.011123711	0.00027699
25	1459444	0.011124223	0.000277502
25	1459475	0.011124735	0.000278014
25	1460558	0.011133957	0.000279044
25	1460590	0.011134469	0.000279556
25	1460621	0.011134981	0.000280068
25	1460652	0.011135493	0.000276484
25	1460683	0.011136005	0.000276996
25	1460714	0.011136517	0.000277508
25	1460899	0.011137031	0.000278022
25	1460916	0.011137543	0.000278534
25	1460971	0.011138055	0.000279046
25	1461002	0.011138567	0.000279558
25	1461033	0.011139079	0.00028007
25	1461064	0.011139591	0.000276486
25	1461095	0.011140103	0.000276998
25	1461126	0.011140615	0.00027751
25	1461299	0.011141129	0.000278024
25	1462244	0.011150349	0.000279052
25	1462276	0.011150861	0.000279564
25	1462307	0.011151373	0.000280076
25	1462338	0.011151885	0.000276492
25	1462369	0.011152397	0.000277004
25	1462400	0.011152909	0.000277516
25	1462585	0.011153423	0.00027803
25	1462602	0.011153935	0.000278542
25	1462657	0.011154447	0.000279054
25	1462688	0.011154959	0.000279566
25	1462719	0.011155471	0.000280078
25	1462750	0.011155983	0.000276494
25	1462781	0.011156495	0.000277006
25	1462812	0.011157007	0.000277518
25	1462985	0.011157521	0.000278032
25	1463930	0.011166741	0.00027906
25	1463962	0.011167253	0.000279572
25	1463993	0.011167765	0.000280084
25	1464024	0.011168277	0.0002765
25	1464055	0.011168789	0.000277012
25	1464086	0.011169301	0.000277524
25	1464271	0.011169815	0.000278038
25	1464288	0.011170327	0.00027855
25	1464343	0.011170839	0.000279062
25	1464374	0.011171351	0.000279574
25	1464405	0.011171863	0.000280086
25	1464442	0.011172375	0.000276502
25	1464473	0.011172887	0.000277014
25	1464504	0.011173399	0.000277526
25	1464677	0.011173913	0.00027804
25	1465622	0.011183133	0.000279068
25	1465654	0.011183645	0.00027958
25	1465685	0.011184157	0.000280092
25	1465716	0.011184669	0.000276508
25	1465747	0.011185181	0.00027702
25	1465778	0.011185693	0.000277532
25	1465963	0.011186207	0.000278046
25	1465980	0.011186719	0.000278558
25	1466035	0.011187231	0.00027907
25	1466066	0.011187743	0.000279582
25	1466097	0.011188255	0.000280094
25	1466128	0.011188767	0.00027651
25	1466159	0.011189279	0.000277022
25	1466190	0.011189791	0.000277534
25	1466363	0.011190305	0.000278048
25	1467308	0.011199525	0.000279076
25	1467340	0.011200037	0.000279588
25	1467371	0.011200549	0.0002801
25	1467402	0.011201061	0.000276516
25	1467433	0.011201573	0.000277028
25	1467464	0.011202085	0.00027754
25	1467649	0.011202599	0.000278054
25	1467666	0.011203111	0.000278566
25	1467721	0.011203623	0.000279078
25	1467752	0.011204135	0.00027959
25	1467783	0.011204647	0.000280102
25	1467814	0.011205159	0.000276518
25	1467845	0.011205671	0.00027703
25	1467876	0.011206183	0.000277542
25	1468049	0.011206697	0.000278056
25	1468994	0.011215917	0.000279084
25	1469026	0.011216429	0.000279596
25	1469057	0.011216941	0.000280108
25	1469088	0.011217453	0.000276524
25	1469119	0.011217965	0.000277036
25	1469150	0.011218477	0.000277548
25	1469335	0.011218991	0.000278062
25	1469352	0.011219503	0.000278574
25	1469407	0.011220015	0.000279086
25	1469438	0.011220527	0.000279598
25	1469475	0.011221039	0.00028011
25	1469506	0.011221551	0.000276526
25	1469537	0.011222063	0.000277038
25	1469568	0.011222575	0.00027755
25	1469741	0.011223089	0.000278064
25	1470686	0.011232309	0.000279092
25	1470718	0.011232821	0.000279604
25	1470749	0.011233333	0.000280116
25	1470780	0.011233845	0.000276532
25	1470811	0.011234357	0.000277044
25	1470842	0.011234869	0.000277556
25	1471027	0.011235383	0.00027807
25	1471044	0.011235895	0.000278582
25	1471099	0.011236407	0.000279094
25	1471130	0.011236919	0.000279606
25	1471161	0.011237431	0.000280118
25	1471192	0.011237943	0.000276534
25	1471223	0.011238455	0.000277046
25	1471254	0.011238967	0.000277558
25	1471448	0.011239481	0.000278072
25	1472372	0.011248701	0.0002791
25	1472404	0.011249213	0.000279612
25	1472435	0.011249725	0.000280124
25	1472466	0.011250237	0.00027654
25	1472497	0.011250749	0.000277052
25	1472528	0.011251261	0.000277564
25	1472713	0.011251775	0.000278078
25	1472730	0.011252287	0.00027859
25	1472785	0.011252799	0.000279102
25	1472816	0.011253311	0.000279614
25	1472847	0.011253823	0.000280126
25	1472878	0.011254335	0.000276542
25	1472909	0.011254847	0.000277054
25	1472940	0.011255359	0.000277566
25	1473134	0.011255873	0.00027808
25	1474058	0.011265093	0.000279108
25	1474090	0.011265605	0.00027962
25	1474121	0.011266117	0.000280132
25	1474152	0.011266629	0.000276548
25	1474183	0.011267141	0.00027706
25	1474214	0.011267653	0.000277572
25	1474399	0.011268167	0.000278086
25	1474416	0.011268679	0.000278598
25	1474471	0.011269191	0.00027911
25	1474502	0.011269703	0.000279622
25	1474539	0.011270215	0.000280134
25	1474570	0.011270727	0.00027655
25	1474601	0.011271239	0.000277062
25	1474632	0.011271751	0.000277574
25	1474827	0.011272265	0.000278088
25	1475750	0.011281485	0.000279116
25	1475782	0.011281997	0.000279628
25	1475813	0.011282509	0.00028014
25	1475844	0.011283021	0.000276556
25	1475875	0.011283533	0.000277068
25	1475906	0.011284045	0.00027758
25	1476092	0.011284559	0.000278094
25	1476108	0.011285071	0.000278606
25	1476163	0.011285583	0.000279118
25	1476194	0.011286095	0.00027963
25	1476225	0.011286607	0.000280142
25	1476256	0.011287119	0.000276558
25	1476287	0.011287631	0.00027707
25	1476318	0.011288143	0.000277582
25	1476513	0.011288657	0.000278096
25	1477436	0.011297877	0.000279124
25	1477468	0.011298389	0.000279636
25	1477499	0.011298901	0.000280148
25	1477530	0.011299413	0.000276564
25	1477561	0.011299925	0.000277076
25	1477592	0.011300437	0.000277588
25	1477778	0.011300951	0.000278102
25	1477794	0.011301463	0.000278614
25	1477849	0.011301975	0.000279126
25	1477880	0.011302487	0.000279638
25	1477911	0.011302999	0.00028015
25	1477942	0.011303511	0.000276566
25	1477973	0.011304023	0.000277078
25	1478004	0.011304535	0.00027759
25	1478199	0.011305049	0.000278104
25	1479122	0.011314269	0.000279132
25	1479154	0.011314781	0.000279644
25	1479185	0.011315293	0.000280156
25	1479216	0.011315805	0.000276572
25	1479247	0.011316317	0.000277084
25	1479278	0.011316829	0.000277596
25	1479464	0.011317343	0.00027811
25	1479480	0.011317855	0.000278622
25	1479535	0.011318367	0.000279134
25	1479566	0.011318879	0.000279646
25	1479603	0.011319391	0.000280158
25	1479634	0.011319903	0.000276574
25	1479665	0.011320415	0.000277086
25	1479696	0.011320927	0.000277598
25	1479891	0.011321441	0.000278112
25	1480814	0.011330661	0.00027914
25	1480846	0.011331173	0.000279652
25	1480877	0.011331685	0.000280164
25	1480908	0.011332197	0.00027658
25	1480939	0.011332709	0.000277092
25	1480970	0.011333221	0.000277604
25	1481156	0.011333735	0.000278118
25	1481172	0.011334247	0.00027863
25	1481227	0.011334759	0.000279142
25	1481258	0.011335271	0.000279654
25	1481289	0.011335783	0.000280166
25	1481320	0.011336295	0.000276582
25	1481351	0.011336807	0.000277094
25	1481382	0.011337319	0.000277606
25	1481581	0.011337833	0.00027812
25	1482497	0.011347053	0.000279148
25	1482527	0.011347565	0.00027966
25	1482557	0.011348077	0.000280172
25	1482587	0.011348589	0.000276588
25	1482617	0.011349101	0.0002771
25	1482647	0.011349613	0.000277612
25	1482832	0.011350127	0.000278126
25	1482848	0.011350639	0.000278638
25	1482901	0.011351151	0.00027915
25	1482931	0.011351663	0.000279662
25	1482961	0.011352175	0.000280174
25	1482991	0.011352687	0.00027659
25	1483022	0.011353199	0.000277102
25	1483053	0.011353711	0.000277614
25	1483251	0.011354225	0.000278128

