version 2
run General-0-20200116-15:17:58-45308
attr configname General
attr datetime 20200116-15:17:58
attr experiment General
attr inifile demo_final.ini
attr iterationvars ""
attr iterationvars2 $repetition=0
attr measurement ""
attr network ib_model.examples.demo.demo_network
attr processid 45308
attr repetition 0
attr replication #0
attr resultdir results
attr runnumber 0
attr seedset 0
param **.CCT_Timer 30us
param **.H_1*.**.endTime 0.011
param **.H_1*.**.startTime 0.01
param **.H_1*.app.dstLid 5
param **.H_1*.app.msg2msgGap 10000ns
param **.H_1*.app.msgLength 4096B
param **.H_1*.app.msgNum 200
param **.H_1.**.on_throughput_gen 1
param **.H_1.**.on_throughput_obuf 1
param **.H_1.app.dstLid 3
param **.H_1.app.msgLength 4194304*20B
param **.H_1.app.msgNum 1000
param **.H_10.**.endTime 0.011
param **.H_10.**.startTime 0.01
param **.H_10.app.dstLid 5
param **.H_10.app.msgLength 4096B
param **.H_10.app.msgNum 200
param **.H_2.**.on_throughput_gen 1
param **.H_2.**.on_throughput_obuf 1
param **.H_2.app.msgLength 4194304*20B
param **.H_2.app.msgNum 1000
param **.H_3.app.msgLength 4194304B
param **.H_3.app.msgNum 1
param **.H_4.app.msg2msgGap 10000ns
param **.H_4.app.msgLength 4096B
param **.H_4.app.msgNum 200
param **.H_5.app.msgLength 4194304B
param **.H_5.app.msgNum 1
param **.H_6.app.msg2msgGap 10000ns
param **.H_6.app.msgLength 4096B
param **.H_6.app.msgNum 200
param **.H_7.app.msg2msgGap 10000ns
param **.H_7.app.msgLength 4096B
param **.H_7.app.msgNum 200
param **.H_8.app.msg2msgGap 10000ns
param **.H_8.app.msgLength 4096B
param **.H_8.app.msgNum 200
param **.H_9.app.msg2msgGap 10000ns
param **.H_9.app.msgLength 4096B
param **.H_9.app.msgNum 200
param **.ISWDelay 50ns
param **.SW**.fdbsVecFile "\"3h_2s.fdbs\""
param **.SW_1**.fdbIndex 0
param **.SW_1.port[3].**.on_throughput_obuf 1
param **.SW_2**.fdbIndex 1
param **.SW_2.port[2].**.on_throughput_obuf 1
param **.VSWDelay 50ns
param **.app.dstSeqVecFile "\"\""
param **.app.dstSeqVecIdx 0
param **.dstMode "\"param\""
param **.flit2FlitGap 0.001ns
param **.flitSize 2048B
param **.genDlyPerByte 0.25ns
param **.ibuf.lossyMode false
param **.maxContPkts 10
param **.maxQueuedPerVL 10
param **.maxVL 0
param **.msgLenMode "\"param\""
param **.msgLenProb "\"1 1 1 1\""
param **.msgLenSet "\"4096 4096 4096\""
param **.msgMtuLen 2048B
param **.msgSQ 0
param **.obuf.credMinTime 4.096us
param **.obuf.width 4
param **.on_cc 0
param **.on_newcc 0
param **.pkt2PktGap 0.001ns
param **.pktFwdType "\"Pktfwd\""
param **.pktfwd.ARAdaptThd 4
param **.pktfwd.AdaptMode "\"none\""
param **.pktfwd.GreedyRandSize 3
param **.pktfwd.LIDBindTime 2us
param **.pktfwd.OPSelAlgo "\"greedy\""
param **.pktfwd.OPSelOffsetByDLID 0
param **.pktfwd.TQBusy1Thd 20
param **.pktfwd.TQBusy2Thd 40
param **.pktfwd.TQBusy3Thd 80
param **.pktfwd.statRepTime 10us
param **.popDlyPerByte 0.25ns
param **.sink.hiccupDelay 10000us
param **.sink.hiccupDuration 0.001us
param **.sink.repFirstPackets 0
param **.speed 10Gbps
param **.startStatCol 100us
param **.timeStep_us 49us
param **.vlarb.highVLArbEntries "\"0:1 1:20 2:40 3:80\""
param **.vlarb.lowVLArbEntries "\"0:1 1:20 2:40 3:80\""
param **.vlarb.markrate 1
param **.vlarb.useFCFSRQArb false
param **.vlarb.vlHighLimit 16
param **.vlarb.width 4
param **.width 4
param **H_**.ibuf.maxStatic* 32
param **H_**.obuf.size 5
param **H_**.vlarb.busWidth 16B
param **H_**.vlarb.coreFreq 1000MHz
param **H_1.**.endTime 0.04
param **H_1.**.startTime 0
param **H_2**.dstLid 5
param **H_2.**.endTime 0.04
param **H_2.**.startTime 0
param **H_3**.dstLid 0
param **H_3.**.endTime 1
param **H_3.**.startTime 0
param **H_4**.dstLid 5
param **H_4.**.endTime 0.011
param **H_4.**.startTime 0.01
param **H_5**.dstLid 0
param **H_5.**.endTime 1
param **H_5.**.startTime 0
param **H_6**.dstLid 5
param **H_6.**.endTime 0.011
param **H_6.**.startTime 0.01
param **H_7**.dstLid 5
param **H_7.**.endTime 0.011
param **H_7.**.startTime 0.01
param **H_8**.dstLid 5
param **H_8.**.endTime 0.011
param **H_8.**.startTime 0.01
param **H_9**.dstLid 5
param **H_9.**.endTime 0.011
param **H_9.**.startTime 0.01
param **SW**.obuf.size 5
param **SW**.port[*].ibuf.maxStatic* 32
param **SW**.vlarb.busWidth 24B
param **SW**.vlarb.coreFreq 1200MHz
param **ibuf.maxBeingSent 1
param **ibuf.totalBufferSize 1000

vector 1  demo_network.H_1.app  msgInfo  ETV
vector 26  demo_network.H_2.app  msgInfo  ETV
vector 707  demo_network.SW_2.port[1].ibuf  inputQueueLength  ETV
vector 491  demo_network.SW_1.port[1].ibuf  inputQueueLength  ETV
vector 112  demo_network.H_5.sink  "sink throughput"  ETV
vector 62  demo_network.H_3.sink  "sink throughput"  ETV
vector 3  demo_network.H_1.gen  Throughput  ETV
vector 28  demo_network.H_2.gen  Throughput  ETV
vector 14  demo_network.H_1.obuf  Throughput-obuf  ETV
vector 39  demo_network.H_2.obuf  Throughput-obuf  ETV
vector 512  demo_network.SW_1.port[3].obuf  Throughput-obuf  ETV
vector 716  demo_network.SW_2.port[2].obuf  Throughput-obuf  ETV
vector 76  demo_network.H_4.app  msgInfo  ETV
vector 126  demo_network.H_6.app  msgInfo  ETV
vector 151  demo_network.H_7.app  msgInfo  ETV
vector 176  demo_network.H_8.app  msgInfo  ETV
vector 201  demo_network.H_9.app  msgInfo  ETV
vector 226  demo_network.H_10.app  msgInfo  ETV
vector 251  demo_network.H_11.app  msgInfo  ETV
vector 276  demo_network.H_12.app  msgInfo  ETV
vector 301  demo_network.H_13.app  msgInfo  ETV
vector 326  demo_network.H_14.app  msgInfo  ETV
vector 351  demo_network.H_15.app  msgInfo  ETV
vector 376  demo_network.H_16.app  msgInfo  ETV
vector 401  demo_network.H_17.app  msgInfo  ETV
vector 426  demo_network.H_18.app  msgInfo  ETV
vector 451  demo_network.H_19.app  msgInfo  ETV
vector 111  demo_network.H_5.sink  "Latency of each message"  ETV
1	1	0	0
3	7070	0.000049	32
3	13503	0.000098	32
3	19911	0.000147	32
3	26351	0.000196	32
3	32759	0.000245	32
3	39188	0.000294	32
3	45628	0.000343	32
3	52036	0.000392	32
3	58465	0.000441	32
3	64905	0.00049	32
3	71311	0.000539	32
3	77740	0.000588	32
3	84180	0.000637	32
3	90571	0.000686	32
3	97011	0.000735	32
3	103449	0.000784	32
3	109830	0.000833	32
3	116261	0.000882	32
3	122701	0.000931	32
3	129096	0.00098	32
3	135520	0.001029	32
3	141959	0.001078	32
3	148347	0.001127	32
3	154771	0.001176	32
3	161210	0.001225	32
3	167608	0.001274	32
3	173928	0.001323	32
3	180358	0.001372	32
3	186765	0.001421	32
3	193205	0.00147	32
3	199635	0.001519	32
3	206042	0.001568	32
3	212482	0.001617	32
3	218911	0.001666	32
3	225321	0.001715	32
3	231761	0.001764	32
3	238169	0.001813	32
3	244596	0.001862	32
3	251027	0.001911	32
3	257435	0.00196	32
3	263856	0.002009	32
3	270296	0.002058	32
3	276702	0.002107	32
3	283115	0.002156	32
3	289555	0.002205	32
3	295952	0.002254	32
3	302390	0.002303	32
3	308814	0.002352	32
3	315203	0.002401	32
3	321641	0.00245	32
3	328065	0.002499	32
3	334462	0.002548	32
3	340902	0.002597	32
3	347222	0.002646	32
3	353619	0.002695	32
3	360060	0.002744	32
3	366500	0.002793	32
3	372898	0.002842	32
3	379338	0.002891	32
3	385768	0.00294	32
3	392166	0.002989	32
3	398606	0.003038	32
3	405036	0.003087	32
3	411441	0.003136	32
3	417881	0.003185	32
3	424310	0.003234	32
3	430718	0.003283	32
3	437150	0.003332	32
3	443558	0.003381	32
3	449985	0.00343	32
3	456409	0.003479	32
3	462817	0.003528	32
3	469246	0.003577	32
3	475684	0.003626	32
3	482068	0.003675	32
3	488497	0.003724	32
3	494935	0.003773	32
3	501330	0.003822	32
3	507762	0.003871	32
3	514200	0.00392	32
3	520475	0.003969	32
3	526906	0.004018	32
3	533346	0.004067	32
3	539743	0.004116	32
3	546183	0.004165	32
3	552623	0.004214	32
3	559020	0.004263	32
3	565460	0.004312	32
3	571899	0.004361	32
3	578297	0.00441	32
3	584735	0.004459	32
3	591165	0.004508	32
3	597572	0.004557	32
3	604012	0.004606	32
3	610434	0.004655	32
3	616841	0.004704	32
3	623279	0.004753	32
3	629692	0.004802	32
3	636102	0.004851	32
3	642542	0.0049	32
3	648961	0.004949	32
3	655353	0.004998	32
3	661792	0.005047	32
3	668190	0.005096	32
3	674603	0.005145	32
3	681043	0.005194	32
3	687446	0.005243	32
3	693760	0.005292	32
3	700200	0.005341	32
3	706608	0.00539	32
3	713037	0.005439	32
3	719477	0.005488	32
3	725874	0.005537	32
3	732314	0.005586	32
3	738754	0.005635	32
3	745151	0.005684	32
3	751591	0.005733	32
3	758029	0.005782	32
3	764426	0.005831	32
3	770866	0.00588	32
3	777307	0.005929	32
3	783697	0.005978	32
3	790137	0.006027	32
3	796574	0.006076	32
3	802947	0.006125	32
3	809387	0.006174	32
3	815817	0.006223	32
3	822206	0.006272	32
3	828646	0.006321	32
3	835067	0.00637	32
3	841473	0.006419	32
3	847897	0.006468	32
3	854323	0.006517	32
3	860732	0.006566	32
3	867054	0.006615	32
3	873462	0.006664	32
3	879891	0.006713	32
3	886331	0.006762	32
3	892739	0.006811	32
3	899168	0.00686	32
3	905608	0.006909	32
3	912018	0.006958	32
3	918447	0.007007	32
3	924887	0.007056	32
3	931282	0.007105	32
3	937713	0.007154	32
3	944153	0.007203	32
3	950550	0.007252	32
3	956982	0.007301	32
3	963422	0.00735	32
3	969817	0.007399	32
3	976241	0.007448	32
3	982680	0.007497	32
3	989078	0.007546	32
3	995500	0.007595	32
3	1001938	0.007644	32
3	1008329	0.007693	32
3	1014767	0.007742	32
3	1021177	0.007791	32
3	1027588	0.00784	32
3	1034026	0.007889	32
3	1040338	0.007938	32
3	1046746	0.007987	32
3	1053187	0.008036	32
3	1059616	0.008085	32
3	1066024	0.008134	32
3	1072464	0.008183	32
3	1078863	0.008232	32
3	1085292	0.008281	32
3	1091732	0.00833	32
3	1098140	0.008379	32
3	1104567	0.008428	32
3	1111007	0.008477	32
3	1117415	0.008526	32
3	1123844	0.008575	32
3	1130276	0.008624	32
3	1136673	0.008673	32
3	1143111	0.008722	32
3	1149535	0.008771	32
3	1155932	0.00882	32
3	1162372	0.008869	32
3	1168793	0.008918	32
3	1175183	0.008967	32
3	1181623	0.009016	32
3	1188062	0.009065	32
3	1194448	0.009114	32
3	1200888	0.009163	32
3	1207325	0.009212	32
3	1213592	0.009261	32
3	1220032	0.00931	32
3	1226462	0.009359	32
3	1232869	0.009408	32
3	1239309	0.009457	32
3	1245739	0.009506	32
3	1252146	0.009555	32
3	1258586	0.009604	32
3	1265015	0.009653	32
3	1271423	0.009702	32
3	1277861	0.009751	32
3	1284269	0.0098	32
3	1290698	0.009849	32
3	1297138	0.009898	32
3	1303538	0.009947	32
3	1309967	0.009996	32
3	1319206	0.010045	32
3	1325841	0.010094	32
3	1332542	0.010143	32
3	1339317	0.010192	32
3	1345659	0.010241	32
3	1352402	0.01029	32
3	1359139	0.010339	32
3	1365479	0.010388	32
3	1372247	0.010437	32
3	1378825	0.010486	32
3	1385182	0.010535	32
3	1391388	0.010584	32
3	1397795	0.010633	32
3	1404094	0.010682	32
3	1410420	0.010731	32
3	1416742	0.01078	32
3	1423041	0.010829	32
3	1429367	0.010878	32
3	1435662	0.010927	32
3	1441980	0.010976	32
3	1448232	0.011025	32
3	1454345	0.011074	32
3	1459821	0.011123	32
3	1464883	0.011172	32
3	1469921	0.011221	32
3	1474984	0.01127	32
3	1480050	0.011319	32
3	1485707	0.011368	32
3	1492545	0.011417	32
3	1498985	0.011466	32
3	1505391	0.011515	32
3	1511804	0.011564	32
3	1518244	0.011613	32
3	1524644	0.011662	32
3	1531071	0.011711	32
3	1537495	0.01176	32
3	1543900	0.011809	32
3	1550330	0.011858	32
3	1556652	0.011907	32
3	1563049	0.011956	32
3	1569489	0.012005	32
3	1575929	0.012054	32
3	1582326	0.012103	32
3	1588766	0.012152	32
3	1595206	0.012201	32
3	1601605	0.01225	32
3	1608045	0.012299	32
3	1614485	0.012348	32
3	1620880	0.012397	32
3	1627311	0.012446	32
3	1633750	0.012495	32
3	1640140	0.012544	32
3	1646580	0.012593	32
3	1653010	0.012642	32
3	1659415	0.012691	32
3	1665839	0.01274	32
3	1672269	0.012789	32
3	1678674	0.012838	32
3	1685098	0.012887	32
3	1691519	0.012936	32
3	1697927	0.012985	32
3	1704365	0.013034	32
3	1710754	0.013083	32
3	1717186	0.013132	32
3	1723624	0.013181	32
3	1729914	0.01323	32
3	1736345	0.013279	32
3	1742785	0.013328	32
3	1749193	0.013377	32
3	1755622	0.013426	32
3	1762053	0.013475	32
3	1768450	0.013524	32
3	1774890	0.013573	32
3	1781330	0.013622	32
3	1787727	0.013671	32
3	1794165	0.01372	32
3	1800605	0.013769	32
3	1807002	0.013818	32
3	1813434	0.013867	32
3	1819874	0.013916	32
3	1826271	0.013965	32
3	1832709	0.014014	32
3	1839132	0.014063	32
3	1845530	0.014112	32
3	1851968	0.014161	32
3	1858381	0.01421	32
3	1864781	0.014259	32
3	1871223	0.014308	32
3	1877651	0.014357	32
3	1884046	0.014406	32
3	1890486	0.014455	32
3	1896906	0.014504	32
3	1903190	0.014553	32
3	1909630	0.014602	32
3	1916038	0.014651	32
3	1922467	0.0147	32
3	1928907	0.014749	32
3	1935315	0.014798	32
3	1941744	0.014847	32
3	1948184	0.014896	32
3	1954592	0.014945	32
3	1961021	0.014994	32
3	1967459	0.015043	32
3	1973856	0.015092	32
3	1980296	0.015141	32
3	1986728	0.01519	32
3	1993125	0.015239	32
3	1999565	0.015288	32
3	2006003	0.015337	32
3	2012386	0.015386	32
3	2018826	0.015435	32
3	2025263	0.015484	32
3	2031637	0.015533	32
3	2038076	0.015582	32
3	2044514	0.015631	32
3	2050887	0.01568	32
3	2057327	0.015729	32
3	2063753	0.015778	32
3	2070162	0.015827	32
3	2076484	0.015876	32
3	2082914	0.015925	32
3	2089321	0.015974	32
3	2095761	0.016023	32
3	2102190	0.016072	32
3	2108598	0.016121	32
3	2115038	0.01617	32
3	2121446	0.016219	32
3	2127875	0.016268	32
3	2134315	0.016317	32
3	2140721	0.016366	32
3	2147152	0.016415	32
3	2153592	0.016464	32
3	2159992	0.016513	32
3	2166421	0.016562	32
3	2172852	0.016611	32
3	2179258	0.01666	32
3	2185671	0.016709	32
3	2192111	0.016758	32
3	2198506	0.016807	32
3	2204930	0.016856	32
3	2211370	0.016905	32
3	2217759	0.016954	32
3	2224181	0.017003	32
3	2230621	0.017052	32
3	2237018	0.017101	32
3	2243456	0.01715	32
3	2249777	0.017199	32
3	2256175	0.017248	32
3	2262615	0.017297	32
3	2269045	0.017346	32
3	2275452	0.017395	32
3	2281892	0.017444	32
3	2288324	0.017493	32
3	2294731	0.017542	32
3	2301171	0.017591	32
3	2307600	0.01764	32
3	2313997	0.017689	32
3	2320437	0.017738	32
3	2326866	0.017787	32
3	2333266	0.017836	32
3	2339706	0.017885	32
3	2346114	0.017934	32
3	2352541	0.017983	32
3	2358965	0.018032	32
3	2365373	0.018081	32
3	2371800	0.01813	32
3	2378224	0.018179	32
3	2384624	0.018228	32
3	2391053	0.018277	32
3	2397475	0.018326	32
3	2403872	0.018375	32
3	2410312	0.018424	32
3	2416750	0.018473	32
3	2423031	0.018522	32
3	2429471	0.018571	32
3	2435911	0.01862	32
3	2442308	0.018669	32
3	2448739	0.018718	32
3	2455178	0.018767	32
3	2461576	0.018816	32
3	2468016	0.018865	32
3	2474455	0.018914	32
3	2480853	0.018963	32
3	2487291	0.019012	32
3	2493721	0.019061	32
3	2500128	0.01911	32
3	2506560	0.019159	32
3	2512989	0.019208	32
3	2519397	0.019257	32
3	2525835	0.019306	32
3	2532248	0.019355	32
3	2538656	0.019404	32
3	2545094	0.019453	32
3	2551478	0.019502	32
3	2557909	0.019551	32
3	2564347	0.0196	32
3	2570740	0.019649	32
3	2577172	0.019698	32
3	2583608	0.019747	32
3	2590002	0.019796	32
3	2596316	0.019845	32
3	2602756	0.019894	32
3	2609153	0.019943	32
3	2615593	0.019992	32
3	2622088	0.020041	32
3	2628485	0.02009	32
3	2634925	0.020139	32
3	2641365	0.020188	32
3	2647762	0.020237	32
3	2654202	0.020286	32
3	2660639	0.020335	32
3	2667037	0.020384	32
3	2673477	0.020433	32
3	2679908	0.020482	32
3	2686306	0.020531	32
3	2692746	0.02058	32
3	2699176	0.020629	32
3	2705567	0.020678	32
3	2712007	0.020727	32
3	2718426	0.020776	32
3	2724817	0.020825	32
3	2731257	0.020874	32
3	2737676	0.020923	32
3	2744068	0.020972	32
3	2750508	0.021021	32
3	2756913	0.02107	32
3	2763343	0.021119	32
3	2769665	0.021168	32
3	2776073	0.021217	32
3	2782502	0.021266	32
3	2788942	0.021315	32
3	2795350	0.021364	32
3	2801779	0.021413	32
3	2808219	0.021462	32
3	2814616	0.021511	32
3	2821056	0.02156	32
3	2827496	0.021609	32
3	2833893	0.021658	32
3	2840333	0.021707	32
3	2846773	0.021756	32
3	2853162	0.021805	32
3	2859593	0.021854	32
3	2866032	0.021903	32
3	2872412	0.021952	32
3	2878852	0.022001	32
3	2885291	0.02205	32
3	2891687	0.022099	32
3	2898111	0.022148	32
3	2904540	0.022197	32
3	2910938	0.022246	32
3	2917362	0.022295	32
3	2923788	0.022344	32
3	2930199	0.022393	32
3	2936637	0.022442	32
3	2942948	0.022491	32
3	2949356	0.02254	32
3	2955796	0.022589	32
3	2962204	0.022638	32
3	2968633	0.022687	32
3	2975075	0.022736	32
3	2981483	0.022785	32
3	2987912	0.022834	32
3	2994352	0.022883	32
3	3000751	0.022932	32
3	3007178	0.022981	32
3	3013618	0.02303	32
3	3020015	0.023079	32
3	3026447	0.023128	32
3	3032887	0.023177	32
3	3039284	0.023226	32
3	3045706	0.023275	32
3	3052146	0.023324	32
3	3058543	0.023373	32
3	3064981	0.023422	32
3	3071404	0.023471	32
3	3077794	0.02352	32
3	3084232	0.023569	32
3	3090655	0.023618	32
3	3097053	0.023667	32
3	3103493	0.023716	32
3	3109923	0.023765	32
3	3116212	0.023814	32
3	3122652	0.023863	32
3	3129082	0.023912	32
3	3135480	0.023961	32
3	3141920	0.02401	32
3	3148349	0.024059	32
3	3154757	0.024108	32
3	3161197	0.024157	32
3	3167605	0.024206	32
3	3174034	0.024255	32
3	3180472	0.024304	32
3	3186880	0.024353	32
3	3193309	0.024402	32
3	3199741	0.024451	32
3	3206149	0.0245	32
3	3212578	0.024549	32
3	3219000	0.024598	32
3	3225397	0.024647	32
3	3231837	0.024696	32
3	3238275	0.024745	32
3	3244650	0.024794	32
3	3251090	0.024843	32
3	3257528	0.024892	32
3	3263913	0.024941	32
3	3270349	0.02499	32
3	3276780	0.025039	32
3	3283057	0.025088	32
3	3289497	0.025137	32
3	3295936	0.025186	32
3	3302334	0.025235	32
3	3308774	0.025284	32
3	3315204	0.025333	32
3	3321611	0.025382	32
3	3328051	0.025431	32
3	3334481	0.02548	32
3	3340888	0.025529	32
3	3347328	0.025578	32
3	3353755	0.025627	32
3	3360163	0.025676	32
3	3366603	0.025725	32
3	3373003	0.025774	32
3	3379432	0.025823	32
3	3385872	0.025872	32
3	3392264	0.025921	32
3	3398693	0.02597	32
3	3405133	0.026019	32
3	3411530	0.026068	32
3	3417943	0.026117	32
3	3424383	0.026166	32
3	3430770	0.026215	32
3	3437194	0.026264	32
3	3443634	0.026313	32
3	3450031	0.026362	32
3	3456351	0.026411	32
3	3462791	0.02646	32
3	3469188	0.026509	32
3	3475628	0.026558	32
3	3482068	0.026607	32
3	3488465	0.026656	32
3	3494905	0.026705	32
3	3501344	0.026754	32
3	3507742	0.026803	32
3	3514182	0.026852	32
3	3520614	0.026901	32
3	3527019	0.02695	32
3	3533459	0.026999	32
3	3539889	0.027048	32
3	3546279	0.027097	32
3	3552719	0.027146	32
3	3559146	0.027195	32
3	3565538	0.027244	32
3	3571978	0.027293	32
3	3578386	0.027342	32
3	3584813	0.027391	32
3	3591237	0.02744	32
3	3597637	0.027489	32
3	3604064	0.027538	32
3	3610488	0.027587	32
3	3616893	0.027636	32
3	3623325	0.027685	32
3	3629645	0.027734	32
3	3636053	0.027783	32
3	3642482	0.027832	32
3	3648922	0.027881	32
3	3655319	0.02793	32
3	3661761	0.027979	32
3	3668201	0.028028	32
3	3674598	0.028077	32
3	3681038	0.028126	32
3	3687469	0.028175	32
3	3693864	0.028224	32
3	3700304	0.028273	32
3	3706743	0.028322	32
3	3713141	0.028371	32
3	3719573	0.02842	32
3	3726003	0.028469	32
3	3732408	0.028518	32
3	3738832	0.028567	32
3	3745262	0.028616	32
3	3751669	0.028665	32
3	3758107	0.028714	32
3	3764512	0.028763	32
3	3770920	0.028812	32
3	3777358	0.028861	32
3	3783768	0.02891	32
3	3790179	0.028959	32
3	3796623	0.029008	32
3	3802909	0.029057	32
3	3809338	0.029106	32
3	3815778	0.029155	32
3	3822177	0.029204	32
3	3828606	0.029253	32
3	3835046	0.029302	32
3	3841454	0.029351	32
3	3847883	0.0294	32
3	3854323	0.029449	32
3	3860720	0.029498	32
3	3867158	0.029547	32
3	3873598	0.029596	32
3	3879995	0.029645	32
3	3886435	0.029694	32
3	3892867	0.029743	32
3	3899264	0.029792	32
3	3905702	0.029841	32
3	3912125	0.02989	32
3	3918523	0.029939	32
3	3924963	0.029988	32
14	7072	0.000049001	22.750040816327
14	13505	0.000098001	16.065306122449
14	19913	0.000147001	16.065306122449
14	26353	0.000196001	16.065306122449
14	32761	0.000245001	16.065306122449
14	39190	0.000294001	16.065306122449
14	45630	0.000343001	16.065306122449
14	52038	0.000392001	16.065306122449
14	58467	0.000441001	16.065306122449
14	64907	0.000490001	16.065306122449
14	71313	0.000539001	16.065306122449
14	77742	0.000588001	16.065306122449
14	84182	0.000637001	16.065306122449
14	90573	0.000686001	16.065306122449
14	97013	0.000735001	16.065306122449
14	103451	0.000784001	16.065306122449
14	109832	0.000833001	15.73093877551
14	116263	0.000882001	15.73093877551
14	122703	0.000931001	16.065306122449
14	129098	0.000980001	16.065306122449
14	135522	0.001029001	15.73093877551
14	141961	0.001078001	16.065306122449
14	148349	0.001127001	16.065306122449
14	154773	0.001176001	15.73093877551
14	161212	0.001225001	16.065306122449
14	167610	0.001274001	16.065306122449
14	173930	0.001323001	15.729632653061
14	180360	0.001372001	16.065306122449
14	186767	0.001421001	16.065306122449
14	193207	0.001470001	16.065306122449
14	199637	0.001519001	16.065306122449
14	206044	0.001568001	16.065306122449
14	212484	0.001617001	16.065306122449
14	218913	0.001666001	16.065306122449
14	225323	0.001715001	16.065306122449
14	231763	0.001764001	16.065306122449
14	238171	0.001813001	16.065306122449
14	244598	0.001862001	16.065306122449
14	251029	0.001911001	16.065306122449
14	257437	0.001960001	16.065306122449
14	263858	0.002009001	16.065306122449
14	270298	0.002058001	16.065306122449
14	276704	0.002107001	16.065306122449
14	283117	0.002156001	15.73093877551
14	289557	0.002205001	16.065306122449
14	295954	0.002254001	16.065306122449
14	302392	0.002303001	16.065306122449
14	308816	0.002352001	15.73093877551
14	315205	0.002401001	16.065306122449
14	321643	0.002450001	16.065306122449
14	328067	0.002499001	15.73093877551
14	334464	0.002548001	16.065306122449
14	340904	0.002597001	16.065306122449
14	347224	0.002646001	15.729632653061
14	353621	0.002695001	16.065306122449
14	360062	0.002744001	16.065306122449
14	366502	0.002793001	16.065306122449
14	372900	0.002842001	16.065306122449
14	379340	0.002891001	16.065306122449
14	385770	0.002940001	16.065306122449
14	392168	0.002989001	15.73093877551
14	398608	0.003038001	16.065306122449
14	405038	0.003087001	16.065306122449
14	411443	0.003136001	16.065306122449
14	417883	0.003185001	16.065306122449
14	424312	0.003234001	16.065306122449
14	430720	0.003283001	16.065306122449
14	437152	0.003332001	16.065306122449
14	443560	0.003381001	16.065306122449
14	449987	0.003430001	16.065306122449
14	456411	0.003479001	15.73093877551
14	462819	0.003528001	16.065306122449
14	469248	0.003577001	16.065306122449
14	475686	0.003626001	16.065306122449
14	482070	0.003675001	15.73093877551
14	488499	0.003724001	16.065306122449
14	494937	0.003773001	16.065306122449
14	501332	0.003822001	15.73093877551
14	507764	0.003871001	16.065306122449
14	514202	0.003920001	16.065306122449
14	520477	0.003969001	15.729632653061
14	526908	0.004018001	16.065306122449
14	533348	0.004067001	16.065306122449
14	539745	0.004116001	16.065306122449
14	546185	0.004165001	16.065306122449
14	552625	0.004214001	16.065306122449
14	559022	0.004263001	16.065306122449
14	565462	0.004312001	16.065306122449
14	571901	0.004361001	16.065306122449
14	578299	0.004410001	16.065306122449
14	584737	0.004459001	16.065306122449
14	591167	0.004508001	16.065306122449
14	597574	0.004557001	16.065306122449
14	604014	0.004606001	16.065306122449
14	610436	0.004655001	16.065306122449
14	616843	0.004704001	16.065306122449
14	623281	0.004753001	16.065306122449
14	629694	0.004802001	15.73093877551
14	636104	0.004851001	16.065306122449
14	642544	0.004900001	16.065306122449
14	648963	0.004949001	16.065306122449
14	655355	0.004998001	15.73093877551
14	661794	0.005047001	15.73093877551
14	668192	0.005096001	16.065306122449
14	674605	0.005145001	15.73093877551
14	681045	0.005194001	16.065306122449
14	687448	0.005243001	16.065306122449
14	693762	0.005292001	15.729632653061
14	700202	0.005341001	16.065306122449
14	706610	0.005390001	16.065306122449
14	713039	0.005439001	16.065306122449
14	719479	0.005488001	16.065306122449
14	725876	0.005537001	16.065306122449
14	732316	0.005586001	16.065306122449
14	738756	0.005635001	16.065306122449
14	745153	0.005684001	16.065306122449
14	751593	0.005733001	16.065306122449
14	758031	0.005782001	16.065306122449
14	764428	0.005831001	16.065306122449
14	770868	0.005880001	16.065306122449
14	777309	0.005929001	16.065306122449
14	783699	0.005978001	16.065306122449
14	790139	0.006027001	16.065306122449
14	796576	0.006076001	16.065306122449
14	802949	0.006125001	15.73093877551
14	809389	0.006174001	16.065306122449
14	815819	0.006223001	16.065306122449
14	822208	0.006272001	15.73093877551
14	828648	0.006321001	16.065306122449
14	835069	0.006370001	16.065306122449
14	841475	0.006419001	16.065306122449
14	847899	0.006468001	15.73093877551
14	854325	0.006517001	16.065306122449
14	860734	0.006566001	16.065306122449
14	867056	0.006615001	15.729632653061
14	873464	0.006664001	16.065306122449
14	879893	0.006713001	16.065306122449
14	886333	0.006762001	16.065306122449
14	892741	0.006811001	16.065306122449
14	899170	0.006860001	16.065306122449
14	905610	0.006909001	16.065306122449
14	912020	0.006958001	16.065306122449
14	918449	0.007007001	16.065306122449
14	924889	0.007056001	16.065306122449
14	931284	0.007105001	16.065306122449
14	937715	0.007154001	15.73093877551
14	944155	0.007203001	16.065306122449
14	950552	0.007252001	16.065306122449
14	956984	0.007301001	16.065306122449
14	963424	0.007350001	16.065306122449
14	969819	0.007399001	16.065306122449
14	976243	0.007448001	15.73093877551
14	982682	0.007497001	16.065306122449
14	989080	0.007546001	16.065306122449
14	995502	0.007595001	15.73093877551
14	1001940	0.007644001	16.065306122449
14	1008331	0.007693001	16.065306122449
14	1014769	0.007742001	16.065306122449
14	1021179	0.007791001	15.73093877551
14	1027590	0.007840001	16.065306122449
14	1034028	0.007889001	16.065306122449
14	1040340	0.007938001	15.729632653061
14	1046748	0.007987001	16.065306122449
14	1053189	0.008036001	16.065306122449
14	1059618	0.008085001	16.065306122449
14	1066026	0.008134001	16.065306122449
14	1072466	0.008183001	16.065306122449
14	1078865	0.008232001	16.065306122449
14	1085294	0.008281001	16.065306122449
14	1091734	0.008330001	16.065306122449
14	1098142	0.008379001	16.065306122449
14	1104569	0.008428001	16.065306122449
14	1111009	0.008477001	16.065306122449
14	1117417	0.008526001	16.065306122449
14	1123846	0.008575001	16.065306122449
14	1130278	0.008624001	16.065306122449
14	1136675	0.008673001	16.065306122449
14	1143113	0.008722001	16.065306122449
14	1149537	0.008771001	15.73093877551
14	1155934	0.008820001	16.065306122449
14	1162374	0.008869001	16.065306122449
14	1168795	0.008918001	15.73093877551
14	1175185	0.008967001	16.065306122449
14	1181625	0.009016001	16.065306122449
14	1188065	0.009065001	16.065306122449
14	1194450	0.009114001	15.73093877551
14	1200890	0.009163001	16.065306122449
14	1207327	0.009212001	16.065306122449
14	1213594	0.009261001	15.395265306122
14	1220034	0.009310001	16.065306122449
14	1226464	0.009359001	16.065306122449
14	1232871	0.009408001	16.065306122449
14	1239311	0.009457001	16.065306122449
14	1245741	0.009506001	16.065306122449
14	1252148	0.009555001	16.065306122449
14	1258588	0.009604001	16.065306122449
14	1265017	0.009653001	16.065306122449
14	1271425	0.009702001	16.065306122449
14	1277863	0.009751001	16.065306122449
14	1284271	0.009800001	16.065306122449
14	1290700	0.009849001	16.065306122449
14	1297140	0.009898001	16.065306122449
14	1303540	0.009947001	16.065306122449
14	1309969	0.009996001	16.065306122449
14	1319208	0.010045001	15.396571428571
14	1325843	0.010094001	3.0210612244898
14	1332544	0.010143001	2.0140408163265
14	1339320	0.010192001	2.0140408163265
14	1345661	0.010241001	2.0140408163265
14	1352404	0.010290001	2.0140408163265
14	1359141	0.010339001	2.0140408163265
14	1365481	0.010388001	2.0140408163265
14	1372249	0.010437001	2.0140408163265
14	1378827	0.010486001	2.0140408163265
14	1385184	0.010535001	2.0140408163265
14	1391390	0.010584001	2.0127346938776
14	1397797	0.010633001	2.0140408163265
14	1404096	0.010682001	2.0140408163265
14	1410422	0.010731001	2.0140408163265
14	1416744	0.010780001	2.0140408163265
14	1423043	0.010829001	2.0140408163265
14	1429369	0.010878001	2.0140408163265
14	1435664	0.010927001	2.0140408163265
14	1441982	0.010976001	2.0140408163265
14	1448234	0.011025001	2.0140408163265
14	1454347	0.011074001	2.0140408163265
14	1459823	0.011123001	2.0140408163265
14	1464885	0.011172001	2.0140408163265
14	1469923	0.011221001	2.0140408163265
14	1474986	0.011270001	2.0140408163265
14	1480052	0.011319001	2.0140408163265
14	1485709	0.011368001	5.0246530612245
14	1492547	0.011417001	16.065306122449
14	1498987	0.011466001	16.065306122449
14	1505393	0.011515001	16.065306122449
14	1511806	0.011564001	15.73093877551
14	1518246	0.011613001	16.065306122449
14	1524646	0.011662001	16.065306122449
14	1531073	0.011711001	16.065306122449
14	1537497	0.011760001	15.73093877551
14	1543902	0.011809001	16.065306122449
14	1550332	0.011858001	16.065306122449
14	1556654	0.011907001	15.729632653061
14	1563051	0.011956001	16.065306122449
14	1569491	0.012005001	16.065306122449
14	1575931	0.012054001	16.065306122449
14	1582328	0.012103001	16.065306122449
14	1588768	0.012152001	16.065306122449
14	1595208	0.012201001	16.065306122449
14	1601607	0.012250001	16.065306122449
14	1608047	0.012299001	16.065306122449
14	1614487	0.012348001	16.065306122449
14	1620882	0.012397001	16.065306122449
14	1627313	0.012446001	15.73093877551
14	1633752	0.012495001	16.065306122449
14	1640142	0.012544001	16.065306122449
14	1646582	0.012593001	16.065306122449
14	1653012	0.012642001	16.065306122449
14	1659417	0.012691001	16.065306122449
14	1665841	0.012740001	15.73093877551
14	1672271	0.012789001	16.065306122449
14	1678676	0.012838001	16.065306122449
14	1685100	0.012887001	15.73093877551
14	1691521	0.012936001	16.065306122449
14	1697929	0.012985001	16.065306122449
14	1704367	0.013034001	16.065306122449
14	1710756	0.013083001	15.73093877551
14	1717188	0.013132001	16.065306122449
14	1723626	0.013181001	16.065306122449
14	1729916	0.013230001	15.729632653061
14	1736347	0.013279001	16.065306122449
14	1742787	0.013328001	16.065306122449
14	1749195	0.013377001	16.065306122449
14	1755624	0.013426001	16.065306122449
14	1762055	0.013475001	16.065306122449
14	1768452	0.013524001	16.065306122449
14	1774892	0.013573001	16.065306122449
14	1781332	0.013622001	16.065306122449
14	1787729	0.013671001	16.065306122449
14	1794167	0.013720001	16.065306122449
14	1800607	0.013769001	16.065306122449
14	1807004	0.013818001	16.065306122449
14	1813436	0.013867001	16.065306122449
14	1819876	0.013916001	16.065306122449
14	1826273	0.013965001	16.065306122449
14	1832711	0.014014001	16.065306122449
14	1839134	0.014063001	15.73093877551
14	1845532	0.014112001	16.065306122449
14	1851970	0.014161001	16.065306122449
14	1858383	0.014210001	15.73093877551
14	1864783	0.014259001	16.065306122449
14	1871225	0.014308001	16.065306122449
14	1877653	0.014357001	16.065306122449
14	1884048	0.014406001	15.73093877551
14	1890488	0.014455001	16.065306122449
14	1896908	0.014504001	16.065306122449
14	1903192	0.014553001	15.395265306122
14	1909632	0.014602001	16.065306122449
14	1916040	0.014651001	16.065306122449
14	1922469	0.014700001	16.065306122449
14	1928909	0.014749001	16.065306122449
14	1935317	0.014798001	16.065306122449
14	1941746	0.014847001	16.065306122449
14	1948186	0.014896001	16.065306122449
14	1954594	0.014945001	16.065306122449
14	1961023	0.014994001	16.065306122449
14	1967461	0.015043001	16.065306122449
14	1973858	0.015092001	16.065306122449
14	1980298	0.015141001	16.065306122449
14	1986730	0.015190001	16.065306122449
14	1993127	0.015239001	16.065306122449
14	1999567	0.015288001	16.065306122449
14	2006005	0.015337001	16.065306122449
14	2012388	0.015386001	15.73093877551
14	2018828	0.015435001	16.065306122449
14	2025265	0.015484001	16.065306122449
14	2031639	0.015533001	15.73093877551
14	2038078	0.015582001	16.065306122449
14	2044516	0.015631001	16.065306122449
14	2050889	0.015680001	15.73093877551
14	2057329	0.015729001	16.065306122449
14	2063755	0.015778001	16.065306122449
14	2070164	0.015827001	16.065306122449
14	2076486	0.015876001	15.729632653061
14	2082916	0.015925001	16.065306122449
14	2089323	0.015974001	16.065306122449
14	2095763	0.016023001	16.065306122449
14	2102192	0.016072001	16.065306122449
14	2108600	0.016121001	16.065306122449
14	2115040	0.016170001	16.065306122449
14	2121448	0.016219001	16.065306122449
14	2127877	0.016268001	16.065306122449
14	2134317	0.016317001	16.065306122449
14	2140723	0.016366001	16.065306122449
14	2147154	0.016415001	16.065306122449
14	2153594	0.016464001	16.065306122449
14	2159994	0.016513001	16.065306122449
14	2166423	0.016562001	16.065306122449
14	2172854	0.016611001	15.73093877551
14	2179260	0.016660001	16.065306122449
14	2185673	0.016709001	15.73093877551
14	2192113	0.016758001	16.065306122449
14	2198508	0.016807001	16.065306122449
14	2204932	0.016856001	15.73093877551
14	2211372	0.016905001	16.065306122449
14	2217761	0.016954001	16.065306122449
14	2224183	0.017003001	15.73093877551
14	2230623	0.017052001	16.065306122449
14	2237020	0.017101001	16.065306122449
14	2243458	0.017150001	16.065306122449
14	2249779	0.017199001	15.729632653061
14	2256177	0.017248001	16.065306122449
14	2262617	0.017297001	16.065306122449
14	2269047	0.017346001	16.065306122449
14	2275454	0.017395001	16.065306122449
14	2281894	0.017444001	16.065306122449
14	2288326	0.017493001	16.065306122449
14	2294733	0.017542001	16.065306122449
14	2301173	0.017591001	16.065306122449
14	2307602	0.017640001	16.065306122449
14	2313999	0.017689001	16.065306122449
14	2320439	0.017738001	16.065306122449
14	2326868	0.017787001	16.065306122449
14	2333268	0.017836001	16.065306122449
14	2339708	0.017885001	16.065306122449
14	2346116	0.017934001	16.065306122449
14	2352543	0.017983001	16.065306122449
14	2358967	0.018032001	15.73093877551
14	2365375	0.018081001	16.065306122449
14	2371802	0.018130001	16.065306122449
14	2378226	0.018179001	15.73093877551
14	2384626	0.018228001	16.065306122449
14	2391055	0.018277001	16.065306122449
14	2397477	0.018326001	15.73093877551
14	2403874	0.018375001	16.065306122449
14	2410314	0.018424001	16.065306122449
14	2416752	0.018473001	16.065306122449
14	2423033	0.018522001	15.729632653061
14	2429473	0.018571001	16.065306122449
14	2435913	0.018620001	16.065306122449
14	2442310	0.018669001	16.065306122449
14	2448741	0.018718001	15.73093877551
14	2455180	0.018767001	16.065306122449
14	2461578	0.018816001	16.065306122449
14	2468018	0.018865001	16.065306122449
14	2474457	0.018914001	16.065306122449
14	2480855	0.018963001	16.065306122449
14	2487293	0.019012001	16.065306122449
14	2493723	0.019061001	16.065306122449
14	2500130	0.019110001	16.065306122449
14	2506562	0.019159001	16.065306122449
14	2512991	0.019208001	16.065306122449
14	2519399	0.019257001	16.065306122449
14	2525837	0.019306001	16.065306122449
14	2532250	0.019355001	15.73093877551
14	2538658	0.019404001	16.065306122449
14	2545096	0.019453001	16.065306122449
14	2551480	0.019502001	15.73093877551
14	2557911	0.019551001	16.065306122449
14	2564349	0.019600001	16.065306122449
14	2570742	0.019649001	15.73093877551
14	2577174	0.019698001	16.065306122449
14	2583610	0.019747001	16.065306122449
14	2590004	0.019796001	16.065306122449
14	2596318	0.019845001	15.729632653061
14	2602758	0.019894001	16.065306122449
14	2609155	0.019943001	16.065306122449
14	2615595	0.019992001	16.065306122449
14	2622090	0.020041001	16.065306122449
14	2628487	0.020090001	16.065306122449
14	2634927	0.020139001	16.065306122449
14	2641367	0.020188001	16.065306122449
14	2647764	0.020237001	16.065306122449
14	2654204	0.020286001	16.065306122449
14	2660641	0.020335001	16.065306122449
14	2667039	0.020384001	16.065306122449
14	2673479	0.020433001	16.065306122449
14	2679910	0.020482001	16.065306122449
14	2686308	0.020531001	16.065306122449
14	2692748	0.020580001	16.065306122449
14	2699178	0.020629001	16.065306122449
14	2705569	0.020678001	15.73093877551
14	2712009	0.020727001	16.065306122449
14	2718436	0.020776001	16.065306122449
14	2724819	0.020825001	15.396571428571
14	2731259	0.020874001	16.065306122449
14	2737678	0.020923001	16.065306122449
14	2744070	0.020972001	15.73093877551
14	2750510	0.021021001	16.065306122449
14	2756915	0.021070001	16.065306122449
14	2763345	0.021119001	16.065306122449
14	2769667	0.021168001	15.729632653061
14	2776075	0.021217001	16.065306122449
14	2782504	0.021266001	16.065306122449
14	2788944	0.021315001	16.065306122449
14	2795352	0.021364001	16.065306122449
14	2801781	0.021413001	16.065306122449
14	2808221	0.021462001	16.065306122449
14	2814618	0.021511001	16.065306122449
14	2821058	0.021560001	16.065306122449
14	2827498	0.021609001	16.065306122449
14	2833895	0.021658001	16.065306122449
14	2840335	0.021707001	16.065306122449
14	2846775	0.021756001	16.065306122449
14	2853164	0.021805001	16.065306122449
14	2859595	0.021854001	16.065306122449
14	2866035	0.021903001	16.065306122449
14	2872414	0.021952001	15.73093877551
14	2878854	0.022001001	16.065306122449
14	2885293	0.022050001	16.065306122449
14	2891689	0.022099001	16.065306122449
14	2898113	0.022148001	15.73093877551
14	2904542	0.022197001	16.065306122449
14	2910940	0.022246001	16.065306122449
14	2917364	0.022295001	15.73093877551
14	2923790	0.022344001	16.065306122449
14	2930201	0.022393001	16.065306122449
14	2936639	0.022442001	16.065306122449
14	2942950	0.022491001	15.729632653061
14	2949358	0.022540001	16.065306122449
14	2955798	0.022589001	16.065306122449
14	2962206	0.022638001	16.065306122449
14	2968635	0.022687001	16.065306122449
14	2975077	0.022736001	16.065306122449
14	2981485	0.022785001	16.065306122449
14	2987914	0.022834001	16.065306122449
14	2994354	0.022883001	16.065306122449
14	3000753	0.022932001	15.73093877551
14	3007180	0.022981001	16.065306122449
14	3013620	0.023030001	16.065306122449
14	3020017	0.023079001	16.065306122449
14	3026449	0.023128001	16.065306122449
14	3032889	0.023177001	16.065306122449
14	3039286	0.023226001	16.065306122449
14	3045708	0.023275001	15.73093877551
14	3052148	0.023324001	16.065306122449
14	3058545	0.023373001	16.065306122449
14	3064983	0.023422001	16.065306122449
14	3071406	0.023471001	15.73093877551
14	3077796	0.023520001	16.065306122449
14	3084234	0.023569001	16.065306122449
14	3090657	0.023618001	15.73093877551
14	3097055	0.023667001	16.065306122449
14	3103495	0.023716001	16.065306122449
14	3109925	0.023765001	16.065306122449
14	3116214	0.023814001	15.729632653061
14	3122654	0.023863001	16.065306122449
14	3129084	0.023912001	16.065306122449
14	3135482	0.023961001	16.065306122449
14	3141922	0.024010001	16.065306122449
14	3148351	0.024059001	16.065306122449
14	3154759	0.024108001	16.065306122449
14	3161199	0.024157001	16.065306122449
14	3167607	0.024206001	16.065306122449
14	3174036	0.024255001	16.065306122449
14	3180474	0.024304001	16.065306122449
14	3186882	0.024353001	16.065306122449
14	3193311	0.024402001	16.065306122449
14	3199743	0.024451001	16.065306122449
14	3206151	0.024500001	16.065306122449
14	3212580	0.024549001	16.065306122449
14	3219002	0.024598001	15.73093877551
14	3225399	0.024647001	16.065306122449
14	3231839	0.024696001	16.065306122449
14	3238277	0.024745001	16.065306122449
14	3244652	0.024794001	15.73093877551
14	3251092	0.024843001	16.065306122449
14	3257530	0.024892001	16.065306122449
14	3263915	0.024941001	15.73093877551
14	3270351	0.024990001	16.065306122449
14	3276782	0.025039001	15.73093877551
14	3283099	0.025088001	15.729632653061
14	3289499	0.025137001	16.065306122449
14	3295938	0.025186001	16.065306122449
14	3302336	0.025235001	16.065306122449
14	3308776	0.025284001	16.065306122449
14	3315206	0.025333001	16.065306122449
14	3321613	0.025382001	16.065306122449
14	3328053	0.025431001	16.065306122449
14	3334483	0.025480001	16.065306122449
14	3340890	0.025529001	16.065306122449
14	3347330	0.025578001	16.065306122449
14	3353757	0.025627001	16.065306122449
14	3360165	0.025676001	16.065306122449
14	3366605	0.025725001	16.065306122449
14	3373005	0.025774001	16.065306122449
14	3379434	0.025823001	16.065306122449
14	3385874	0.025872001	16.065306122449
14	3392266	0.025921001	15.73093877551
14	3398695	0.025970001	16.065306122449
14	3405135	0.026019001	16.065306122449
14	3411532	0.026068001	16.065306122449
14	3417945	0.026117001	15.73093877551
14	3424385	0.026166001	16.065306122449
14	3430772	0.026215001	16.065306122449
14	3437196	0.026264001	15.73093877551
14	3443636	0.026313001	16.065306122449
14	3450033	0.026362001	16.065306122449
14	3456353	0.026411001	15.729632653061
14	3462793	0.026460001	16.065306122449
14	3469190	0.026509001	16.065306122449
14	3475630	0.026558001	16.065306122449
14	3482070	0.026607001	16.065306122449
14	3488467	0.026656001	16.065306122449
14	3494907	0.026705001	16.065306122449
14	3501346	0.026754001	16.065306122449
14	3507744	0.026803001	16.065306122449
14	3514184	0.026852001	16.065306122449
14	3520616	0.026901001	16.065306122449
14	3527021	0.026950001	16.065306122449
14	3533461	0.026999001	16.065306122449
14	3539891	0.027048001	16.065306122449
14	3546281	0.027097001	15.73093877551
14	3552721	0.027146001	16.065306122449
14	3559148	0.027195001	16.065306122449
14	3565540	0.027244001	15.73093877551
14	3571980	0.027293001	16.065306122449
14	3578388	0.027342001	16.065306122449
14	3584815	0.027391001	16.065306122449
14	3591239	0.027440001	15.73093877551
14	3597639	0.027489001	16.065306122449
14	3604066	0.027538001	16.065306122449
14	3610490	0.027587001	15.73093877551
14	3616895	0.027636001	16.065306122449
14	3623327	0.027685001	16.065306122449
14	3629647	0.027734001	15.729632653061
14	3636055	0.027783001	16.065306122449
14	3642484	0.027832001	16.065306122449
14	3648924	0.027881001	16.065306122449
14	3655321	0.027930001	16.065306122449
14	3661763	0.027979001	16.065306122449
14	3668203	0.028028001	16.065306122449
14	3674600	0.028077001	16.065306122449
14	3681040	0.028126001	16.065306122449
14	3687471	0.028175001	16.065306122449
14	3693866	0.028224001	16.065306122449
14	3700306	0.028273001	16.065306122449
14	3706745	0.028322001	16.065306122449
14	3713143	0.028371001	16.065306122449
14	3719575	0.028420001	16.065306122449
14	3726005	0.028469001	16.065306122449
14	3732410	0.028518001	16.065306122449
14	3738834	0.028567001	15.73093877551
14	3745264	0.028616001	16.065306122449
14	3751671	0.028665001	16.065306122449
14	3758109	0.028714001	16.065306122449
14	3764514	0.028763001	15.73093877551
14	3770922	0.028812001	16.065306122449
14	3777360	0.028861001	16.065306122449
14	3783770	0.028910001	15.73093877551
14	3790181	0.028959001	16.065306122449
14	3796625	0.029008001	16.065306122449
14	3802911	0.029057001	15.729632653061
14	3809340	0.029106001	16.065306122449
14	3815780	0.029155001	16.065306122449
14	3822179	0.029204001	15.73093877551
14	3828608	0.029253001	16.065306122449
14	3835048	0.029302001	16.065306122449
14	3841456	0.029351001	16.065306122449
14	3847885	0.029400001	16.065306122449
14	3854325	0.029449001	16.065306122449
14	3860722	0.029498001	16.065306122449
14	3867160	0.029547001	16.065306122449
14	3873600	0.029596001	16.065306122449
14	3879997	0.029645001	16.065306122449
14	3886437	0.029694001	16.065306122449
14	3892869	0.029743001	16.065306122449
14	3899266	0.029792001	16.065306122449
14	3905704	0.029841001	16.065306122449
14	3912127	0.029890001	15.73093877551
14	3918525	0.029939001	16.065306122449
14	3924965	0.029988001	16.065306122449
26	3	0	0
28	7071	0.000049	32
28	13504	0.000098	32
28	19912	0.000147	32
28	26352	0.000196	32
28	32760	0.000245	32
28	39189	0.000294	32
28	45629	0.000343	32
28	52037	0.000392	32
28	58466	0.000441	32
28	64906	0.00049	32
28	71312	0.000539	32
28	77741	0.000588	32
28	84181	0.000637	32
28	90572	0.000686	32
28	97012	0.000735	32
28	103450	0.000784	32
28	109831	0.000833	32
28	116262	0.000882	32
28	122702	0.000931	32
28	129097	0.00098	32
28	135521	0.001029	32
28	141960	0.001078	32
28	148348	0.001127	32
28	154772	0.001176	32
28	161211	0.001225	32
28	167609	0.001274	32
28	173929	0.001323	32
28	180359	0.001372	32
28	186766	0.001421	32
28	193206	0.00147	32
28	199636	0.001519	32
28	206043	0.001568	32
28	212483	0.001617	32
28	218912	0.001666	32
28	225322	0.001715	32
28	231762	0.001764	32
28	238170	0.001813	32
28	244597	0.001862	32
28	251028	0.001911	32
28	257436	0.00196	32
28	263857	0.002009	32
28	270297	0.002058	32
28	276703	0.002107	32
28	283116	0.002156	32
28	289556	0.002205	32
28	295953	0.002254	32
28	302391	0.002303	32
28	308815	0.002352	32
28	315204	0.002401	32
28	321642	0.00245	32
28	328066	0.002499	32
28	334463	0.002548	32
28	340903	0.002597	32
28	347223	0.002646	32
28	353620	0.002695	32
28	360061	0.002744	32
28	366501	0.002793	32
28	372899	0.002842	32
28	379339	0.002891	32
28	385769	0.00294	32
28	392167	0.002989	32
28	398607	0.003038	32
28	405037	0.003087	32
28	411442	0.003136	32
28	417882	0.003185	32
28	424311	0.003234	32
28	430719	0.003283	32
28	437151	0.003332	32
28	443559	0.003381	32
28	449986	0.00343	32
28	456410	0.003479	32
28	462818	0.003528	32
28	469247	0.003577	32
28	475685	0.003626	32
28	482069	0.003675	32
28	488498	0.003724	32
28	494936	0.003773	32
28	501331	0.003822	32
28	507763	0.003871	32
28	514201	0.00392	32
28	520476	0.003969	32
28	526907	0.004018	32
28	533347	0.004067	32
28	539744	0.004116	32
28	546184	0.004165	32
28	552624	0.004214	32
28	559021	0.004263	32
28	565461	0.004312	32
28	571900	0.004361	32
28	578298	0.00441	32
28	584736	0.004459	32
28	591166	0.004508	32
28	597573	0.004557	32
28	604013	0.004606	32
28	610435	0.004655	32
28	616842	0.004704	32
28	623280	0.004753	32
28	629693	0.004802	32
28	636103	0.004851	32
28	642543	0.0049	32
28	648962	0.004949	32
28	655354	0.004998	32
28	661793	0.005047	32
28	668191	0.005096	32
28	674604	0.005145	32
28	681044	0.005194	32
28	687447	0.005243	32
28	693761	0.005292	32
28	700201	0.005341	32
28	706609	0.00539	32
28	713038	0.005439	32
28	719478	0.005488	32
28	725875	0.005537	32
28	732315	0.005586	32
28	738755	0.005635	32
28	745152	0.005684	32
28	751592	0.005733	32
28	758030	0.005782	32
28	764427	0.005831	32
28	770867	0.00588	32
28	777308	0.005929	32
28	783698	0.005978	32
28	790138	0.006027	32
28	796575	0.006076	32
28	802948	0.006125	32
28	809388	0.006174	32
28	815818	0.006223	32
28	822207	0.006272	32
28	828647	0.006321	32
28	835068	0.00637	32
28	841474	0.006419	32
28	847898	0.006468	32
28	854324	0.006517	32
28	860733	0.006566	32
28	867055	0.006615	32
28	873463	0.006664	32
28	879892	0.006713	32
28	886332	0.006762	32
28	892740	0.006811	32
28	899169	0.00686	32
28	905609	0.006909	32
28	912019	0.006958	32
28	918448	0.007007	32
28	924888	0.007056	32
28	931283	0.007105	32
28	937714	0.007154	32
28	944154	0.007203	32
28	950551	0.007252	32
28	956983	0.007301	32
28	963423	0.00735	32
28	969818	0.007399	32
28	976242	0.007448	32
28	982681	0.007497	32
28	989079	0.007546	32
28	995501	0.007595	32
28	1001939	0.007644	32
28	1008330	0.007693	32
28	1014768	0.007742	32
28	1021178	0.007791	32
28	1027589	0.00784	32
28	1034027	0.007889	32
28	1040339	0.007938	32
28	1046747	0.007987	32
28	1053188	0.008036	32
28	1059617	0.008085	32
28	1066025	0.008134	32
28	1072465	0.008183	32
28	1078864	0.008232	32
28	1085293	0.008281	32
28	1091733	0.00833	32
28	1098141	0.008379	32
28	1104568	0.008428	32
28	1111008	0.008477	32
28	1117416	0.008526	32
28	1123845	0.008575	32
28	1130277	0.008624	32
28	1136674	0.008673	32
28	1143112	0.008722	32
28	1149536	0.008771	32
28	1155933	0.00882	32
28	1162373	0.008869	32
28	1168794	0.008918	32
28	1175184	0.008967	32
28	1181624	0.009016	32
28	1188063	0.009065	32
28	1194449	0.009114	32
28	1200889	0.009163	32
28	1207326	0.009212	32
28	1213593	0.009261	32
28	1220033	0.00931	32
28	1226463	0.009359	32
28	1232870	0.009408	32
28	1239310	0.009457	32
28	1245740	0.009506	32
28	1252147	0.009555	32
28	1258587	0.009604	32
28	1265016	0.009653	32
28	1271424	0.009702	32
28	1277862	0.009751	32
28	1284270	0.0098	32
28	1290699	0.009849	32
28	1297139	0.009898	32
28	1303539	0.009947	32
28	1309968	0.009996	32
28	1319207	0.010045	32
28	1325842	0.010094	32
28	1332543	0.010143	32
28	1339318	0.010192	32
28	1345660	0.010241	32
28	1352403	0.01029	32
28	1359140	0.010339	32
28	1365480	0.010388	32
28	1372248	0.010437	32
28	1378826	0.010486	32
28	1385183	0.010535	32
28	1391389	0.010584	32
28	1397796	0.010633	32
28	1404095	0.010682	32
28	1410421	0.010731	32
28	1416743	0.01078	32
28	1423042	0.010829	32
28	1429368	0.010878	32
28	1435663	0.010927	32
28	1441981	0.010976	32
28	1448233	0.011025	32
28	1454346	0.011074	32
28	1459822	0.011123	32
28	1464884	0.011172	32
28	1469922	0.011221	32
28	1474985	0.01127	32
28	1480051	0.011319	32
28	1485708	0.011368	32
28	1492546	0.011417	32
28	1498986	0.011466	32
28	1505392	0.011515	32
28	1511805	0.011564	32
28	1518245	0.011613	32
28	1524645	0.011662	32
28	1531072	0.011711	32
28	1537496	0.01176	32
28	1543901	0.011809	32
28	1550331	0.011858	32
28	1556653	0.011907	32
28	1563050	0.011956	32
28	1569490	0.012005	32
28	1575930	0.012054	32
28	1582327	0.012103	32
28	1588767	0.012152	32
28	1595207	0.012201	32
28	1601606	0.01225	32
28	1608046	0.012299	32
28	1614486	0.012348	32
28	1620881	0.012397	32
28	1627312	0.012446	32
28	1633751	0.012495	32
28	1640141	0.012544	32
28	1646581	0.012593	32
28	1653011	0.012642	32
28	1659416	0.012691	32
28	1665840	0.01274	32
28	1672270	0.012789	32
28	1678675	0.012838	32
28	1685099	0.012887	32
28	1691520	0.012936	32
28	1697928	0.012985	32
28	1704366	0.013034	32
28	1710755	0.013083	32
28	1717187	0.013132	32
28	1723625	0.013181	32
28	1729915	0.01323	32
28	1736346	0.013279	32
28	1742786	0.013328	32
28	1749194	0.013377	32
28	1755623	0.013426	32
28	1762054	0.013475	32
28	1768451	0.013524	32
28	1774891	0.013573	32
28	1781331	0.013622	32
28	1787728	0.013671	32
28	1794166	0.01372	32
28	1800606	0.013769	32
28	1807003	0.013818	32
28	1813435	0.013867	32
28	1819875	0.013916	32
28	1826272	0.013965	32
28	1832710	0.014014	32
28	1839133	0.014063	32
28	1845531	0.014112	32
28	1851969	0.014161	32
28	1858382	0.01421	32
28	1864782	0.014259	32
28	1871224	0.014308	32
28	1877652	0.014357	32
28	1884047	0.014406	32
28	1890487	0.014455	32
28	1896907	0.014504	32
28	1903191	0.014553	32
28	1909631	0.014602	32
28	1916039	0.014651	32
28	1922468	0.0147	32
28	1928908	0.014749	32
28	1935316	0.014798	32
28	1941745	0.014847	32
28	1948185	0.014896	32
28	1954593	0.014945	32
28	1961022	0.014994	32
28	1967460	0.015043	32
28	1973857	0.015092	32
28	1980297	0.015141	32
28	1986729	0.01519	32
28	1993126	0.015239	32
28	1999566	0.015288	32
28	2006004	0.015337	32
28	2012387	0.015386	32
28	2018827	0.015435	32
28	2025264	0.015484	32
28	2031638	0.015533	32
28	2038077	0.015582	32
28	2044515	0.015631	32
28	2050888	0.01568	32
28	2057328	0.015729	32
28	2063754	0.015778	32
28	2070163	0.015827	32
28	2076485	0.015876	32
28	2082915	0.015925	32
28	2089322	0.015974	32
28	2095762	0.016023	32
28	2102191	0.016072	32
28	2108599	0.016121	32
28	2115039	0.01617	32
28	2121447	0.016219	32
28	2127876	0.016268	32
28	2134316	0.016317	32
28	2140722	0.016366	32
28	2147153	0.016415	32
28	2153593	0.016464	32
28	2159993	0.016513	32
28	2166422	0.016562	32
28	2172853	0.016611	32
28	2179259	0.01666	32
28	2185672	0.016709	32
28	2192112	0.016758	32
28	2198507	0.016807	32
28	2204931	0.016856	32
28	2211371	0.016905	32
28	2217760	0.016954	32
28	2224182	0.017003	32
28	2230622	0.017052	32
28	2237019	0.017101	32
28	2243457	0.01715	32
28	2249778	0.017199	32
28	2256176	0.017248	32
28	2262616	0.017297	32
28	2269046	0.017346	32
28	2275453	0.017395	32
28	2281893	0.017444	32
28	2288325	0.017493	32
28	2294732	0.017542	32
28	2301172	0.017591	32
28	2307601	0.01764	32
28	2313998	0.017689	32
28	2320438	0.017738	32
28	2326867	0.017787	32
28	2333267	0.017836	32
28	2339707	0.017885	32
28	2346115	0.017934	32
28	2352542	0.017983	32
28	2358966	0.018032	32
28	2365374	0.018081	32
28	2371801	0.01813	32
28	2378225	0.018179	32
28	2384625	0.018228	32
28	2391054	0.018277	32
28	2397476	0.018326	32
28	2403873	0.018375	32
28	2410313	0.018424	32
28	2416751	0.018473	32
28	2423032	0.018522	32
28	2429472	0.018571	32
28	2435912	0.01862	32
28	2442309	0.018669	32
28	2448740	0.018718	32
28	2455179	0.018767	32
28	2461577	0.018816	32
28	2468017	0.018865	32
28	2474456	0.018914	32
28	2480854	0.018963	32
28	2487292	0.019012	32
28	2493722	0.019061	32
28	2500129	0.01911	32
28	2506561	0.019159	32
28	2512990	0.019208	32
28	2519398	0.019257	32
28	2525836	0.019306	32
28	2532249	0.019355	32
28	2538657	0.019404	32
28	2545095	0.019453	32
28	2551479	0.019502	32
28	2557910	0.019551	32
28	2564348	0.0196	32
28	2570741	0.019649	32
28	2577173	0.019698	32
28	2583609	0.019747	32
28	2590003	0.019796	32
28	2596317	0.019845	32
28	2602757	0.019894	32
28	2609154	0.019943	32
28	2615594	0.019992	32
28	2622089	0.020041	32
28	2628486	0.02009	32
28	2634926	0.020139	32
28	2641366	0.020188	32
28	2647763	0.020237	32
28	2654203	0.020286	32
28	2660640	0.020335	32
28	2667038	0.020384	32
28	2673478	0.020433	32
28	2679909	0.020482	32
28	2686307	0.020531	32
28	2692747	0.02058	32
28	2699177	0.020629	32
28	2705568	0.020678	32
28	2712008	0.020727	32
28	2718427	0.020776	32
28	2724818	0.020825	32
28	2731258	0.020874	32
28	2737677	0.020923	32
28	2744069	0.020972	32
28	2750509	0.021021	32
28	2756914	0.02107	32
28	2763344	0.021119	32
28	2769666	0.021168	32
28	2776074	0.021217	32
28	2782503	0.021266	32
28	2788943	0.021315	32
28	2795351	0.021364	32
28	2801780	0.021413	32
28	2808220	0.021462	32
28	2814617	0.021511	32
28	2821057	0.02156	32
28	2827497	0.021609	32
28	2833894	0.021658	32
28	2840334	0.021707	32
28	2846774	0.021756	32
28	2853163	0.021805	32
28	2859594	0.021854	32
28	2866033	0.021903	32
28	2872413	0.021952	32
28	2878853	0.022001	32
28	2885292	0.02205	32
28	2891688	0.022099	32
28	2898112	0.022148	32
28	2904541	0.022197	32
28	2910939	0.022246	32
28	2917363	0.022295	32
28	2923789	0.022344	32
28	2930200	0.022393	32
28	2936638	0.022442	32
28	2942949	0.022491	32
28	2949357	0.02254	32
28	2955797	0.022589	32
28	2962205	0.022638	32
28	2968634	0.022687	32
28	2975076	0.022736	32
28	2981484	0.022785	32
28	2987913	0.022834	32
28	2994353	0.022883	32
28	3000752	0.022932	32
28	3007179	0.022981	32
28	3013619	0.02303	32
28	3020016	0.023079	32
28	3026448	0.023128	32
28	3032888	0.023177	32
28	3039285	0.023226	32
28	3045707	0.023275	32
28	3052147	0.023324	32
28	3058544	0.023373	32
28	3064982	0.023422	32
28	3071405	0.023471	32
28	3077795	0.02352	32
28	3084233	0.023569	32
28	3090656	0.023618	32
28	3097054	0.023667	32
28	3103494	0.023716	32
28	3109924	0.023765	32
28	3116213	0.023814	32
28	3122653	0.023863	32
28	3129083	0.023912	32
28	3135481	0.023961	32
28	3141921	0.02401	32
28	3148350	0.024059	32
28	3154758	0.024108	32
28	3161198	0.024157	32
28	3167606	0.024206	32
28	3174035	0.024255	32
28	3180473	0.024304	32
28	3186881	0.024353	32
28	3193310	0.024402	32
28	3199742	0.024451	32
28	3206150	0.0245	32
28	3212579	0.024549	32
28	3219001	0.024598	32
28	3225398	0.024647	32
28	3231838	0.024696	32
28	3238276	0.024745	32
28	3244651	0.024794	32
28	3251091	0.024843	32
28	3257529	0.024892	32
28	3263914	0.024941	32
28	3270350	0.02499	32
28	3276781	0.025039	32
28	3283058	0.025088	32
28	3289498	0.025137	32
28	3295937	0.025186	32
28	3302335	0.025235	32
28	3308775	0.025284	32
28	3315205	0.025333	32
28	3321612	0.025382	32
28	3328052	0.025431	32
28	3334482	0.02548	32
28	3340889	0.025529	32
28	3347329	0.025578	32
28	3353756	0.025627	32
28	3360164	0.025676	32
28	3366604	0.025725	32
28	3373004	0.025774	32
28	3379433	0.025823	32
28	3385873	0.025872	32
28	3392265	0.025921	32
28	3398694	0.02597	32
28	3405134	0.026019	32
28	3411531	0.026068	32
28	3417944	0.026117	32
28	3424384	0.026166	32
28	3430771	0.026215	32
28	3437195	0.026264	32
28	3443635	0.026313	32
28	3450032	0.026362	32
28	3456352	0.026411	32
28	3462792	0.02646	32
28	3469189	0.026509	32
28	3475629	0.026558	32
28	3482069	0.026607	32
28	3488466	0.026656	32
28	3494906	0.026705	32
28	3501345	0.026754	32
28	3507743	0.026803	32
28	3514183	0.026852	32
28	3520615	0.026901	32
28	3527020	0.02695	32
28	3533460	0.026999	32
28	3539890	0.027048	32
28	3546280	0.027097	32
28	3552720	0.027146	32
28	3559147	0.027195	32
28	3565539	0.027244	32
28	3571979	0.027293	32
28	3578387	0.027342	32
28	3584814	0.027391	32
28	3591238	0.02744	32
28	3597638	0.027489	32
28	3604065	0.027538	32
28	3610489	0.027587	32
28	3616894	0.027636	32
28	3623326	0.027685	32
28	3629646	0.027734	32
28	3636054	0.027783	32
28	3642483	0.027832	32
28	3648923	0.027881	32
28	3655320	0.02793	32
28	3661762	0.027979	32
28	3668202	0.028028	32
28	3674599	0.028077	32
28	3681039	0.028126	32
28	3687470	0.028175	32
28	3693865	0.028224	32
28	3700305	0.028273	32
28	3706744	0.028322	32
28	3713142	0.028371	32
28	3719574	0.02842	32
28	3726004	0.028469	32
28	3732409	0.028518	32
28	3738833	0.028567	32
28	3745263	0.028616	32
28	3751670	0.028665	32
28	3758108	0.028714	32
28	3764513	0.028763	32
28	3770921	0.028812	32
28	3777359	0.028861	32
28	3783769	0.02891	32
28	3790180	0.028959	32
28	3796624	0.029008	32
28	3802910	0.029057	32
28	3809339	0.029106	32
28	3815779	0.029155	32
28	3822178	0.029204	32
28	3828607	0.029253	32
28	3835047	0.029302	32
28	3841455	0.029351	32
28	3847884	0.0294	32
28	3854324	0.029449	32
28	3860721	0.029498	32
28	3867159	0.029547	32
28	3873599	0.029596	32
28	3879996	0.029645	32
28	3886436	0.029694	32
28	3892868	0.029743	32
28	3899265	0.029792	32
28	3905703	0.029841	32
28	3912126	0.02989	32
28	3918524	0.029939	32
28	3924964	0.029988	32
39	7073	0.000049001	29.105632653061
39	13506	0.000098001	16.065306122449
39	19914	0.000147001	16.065306122449
39	26354	0.000196001	16.065306122449
39	32762	0.000245001	16.065306122449
39	39191	0.000294001	16.065306122449
39	45631	0.000343001	16.065306122449
39	52039	0.000392001	16.065306122449
39	58468	0.000441001	16.065306122449
39	64908	0.000490001	16.065306122449
39	71314	0.000539001	16.065306122449
39	77743	0.000588001	16.065306122449
39	84183	0.000637001	16.065306122449
39	90574	0.000686001	16.065306122449
39	97014	0.000735001	16.065306122449
39	103452	0.000784001	16.065306122449
39	109833	0.000833001	15.73093877551
39	116264	0.000882001	16.065306122449
39	122704	0.000931001	16.065306122449
39	129099	0.000980001	16.065306122449
39	135523	0.001029001	15.73093877551
39	141962	0.001078001	16.065306122449
39	148350	0.001127001	16.065306122449
39	154774	0.001176001	15.73093877551
39	161213	0.001225001	16.065306122449
39	167611	0.001274001	16.065306122449
39	173931	0.001323001	15.729632653061
39	180361	0.001372001	16.065306122449
39	186768	0.001421001	16.065306122449
39	193208	0.001470001	16.065306122449
39	199638	0.001519001	16.065306122449
39	206045	0.001568001	16.065306122449
39	212485	0.001617001	16.065306122449
39	218914	0.001666001	16.065306122449
39	225324	0.001715001	16.065306122449
39	231764	0.001764001	16.065306122449
39	238172	0.001813001	16.065306122449
39	244599	0.001862001	16.065306122449
39	251030	0.001911001	15.73093877551
39	257438	0.001960001	16.065306122449
39	263859	0.002009001	16.065306122449
39	270299	0.002058001	16.065306122449
39	276705	0.002107001	16.065306122449
39	283118	0.002156001	15.73093877551
39	289558	0.002205001	16.065306122449
39	295955	0.002254001	16.065306122449
39	302393	0.002303001	16.065306122449
39	308817	0.002352001	15.73093877551
39	315206	0.002401001	16.065306122449
39	321644	0.002450001	16.065306122449
39	328068	0.002499001	15.73093877551
39	334465	0.002548001	16.065306122449
39	340905	0.002597001	16.065306122449
39	347225	0.002646001	15.729632653061
39	353622	0.002695001	16.065306122449
39	360063	0.002744001	16.065306122449
39	366503	0.002793001	16.065306122449
39	372901	0.002842001	16.065306122449
39	379341	0.002891001	16.065306122449
39	385771	0.002940001	16.065306122449
39	392169	0.002989001	16.065306122449
39	398609	0.003038001	16.065306122449
39	405039	0.003087001	16.065306122449
39	411444	0.003136001	16.065306122449
39	417884	0.003185001	16.065306122449
39	424313	0.003234001	16.065306122449
39	430721	0.003283001	16.065306122449
39	437153	0.003332001	16.065306122449
39	443561	0.003381001	16.065306122449
39	449988	0.003430001	16.065306122449
39	456412	0.003479001	15.73093877551
39	462820	0.003528001	16.065306122449
39	469249	0.003577001	16.065306122449
39	475687	0.003626001	16.065306122449
39	482071	0.003675001	15.73093877551
39	488500	0.003724001	16.065306122449
39	494938	0.003773001	16.065306122449
39	501333	0.003822001	15.73093877551
39	507765	0.003871001	16.065306122449
39	514203	0.003920001	16.065306122449
39	520478	0.003969001	15.729632653061
39	526909	0.004018001	15.73093877551
39	533349	0.004067001	16.065306122449
39	539746	0.004116001	16.065306122449
39	546186	0.004165001	16.065306122449
39	552626	0.004214001	16.065306122449
39	559023	0.004263001	16.065306122449
39	565463	0.004312001	16.065306122449
39	571902	0.004361001	16.065306122449
39	578300	0.004410001	16.065306122449
39	584738	0.004459001	16.065306122449
39	591168	0.004508001	16.065306122449
39	597575	0.004557001	16.065306122449
39	604015	0.004606001	16.065306122449
39	610437	0.004655001	16.065306122449
39	616844	0.004704001	16.065306122449
39	623282	0.004753001	16.065306122449
39	629695	0.004802001	15.73093877551
39	636105	0.004851001	16.065306122449
39	642545	0.004900001	16.065306122449
39	648964	0.004949001	16.065306122449
39	655356	0.004998001	15.73093877551
39	661795	0.005047001	16.065306122449
39	668193	0.005096001	16.065306122449
39	674606	0.005145001	15.73093877551
39	681046	0.005194001	16.065306122449
39	687449	0.005243001	16.065306122449
39	693763	0.005292001	15.729632653061
39	700203	0.005341001	16.065306122449
39	706611	0.005390001	16.065306122449
39	713040	0.005439001	16.065306122449
39	719480	0.005488001	16.065306122449
39	725877	0.005537001	16.065306122449
39	732317	0.005586001	16.065306122449
39	738757	0.005635001	16.065306122449
39	745154	0.005684001	16.065306122449
39	751594	0.005733001	16.065306122449
39	758032	0.005782001	16.065306122449
39	764429	0.005831001	16.065306122449
39	770869	0.005880001	16.065306122449
39	777310	0.005929001	16.065306122449
39	783700	0.005978001	16.065306122449
39	790140	0.006027001	16.065306122449
39	796577	0.006076001	16.065306122449
39	802950	0.006125001	15.396571428571
39	809390	0.006174001	16.065306122449
39	815820	0.006223001	16.065306122449
39	822209	0.006272001	15.73093877551
39	828649	0.006321001	16.065306122449
39	835070	0.006370001	16.065306122449
39	841476	0.006419001	16.065306122449
39	847900	0.006468001	15.73093877551
39	854326	0.006517001	16.065306122449
39	860735	0.006566001	16.065306122449
39	867057	0.006615001	15.729632653061
39	873465	0.006664001	16.065306122449
39	879894	0.006713001	16.065306122449
39	886334	0.006762001	16.065306122449
39	892742	0.006811001	16.065306122449
39	899171	0.006860001	16.065306122449
39	905611	0.006909001	16.065306122449
39	912021	0.006958001	16.065306122449
39	918450	0.007007001	16.065306122449
39	924890	0.007056001	16.065306122449
39	931285	0.007105001	16.065306122449
39	937716	0.007154001	16.065306122449
39	944156	0.007203001	16.065306122449
39	950553	0.007252001	16.065306122449
39	956985	0.007301001	16.065306122449
39	963425	0.007350001	16.065306122449
39	969820	0.007399001	16.065306122449
39	976244	0.007448001	15.73093877551
39	982683	0.007497001	16.065306122449
39	989081	0.007546001	16.065306122449
39	995503	0.007595001	15.73093877551
39	1001941	0.007644001	16.065306122449
39	1008332	0.007693001	16.065306122449
39	1014770	0.007742001	16.065306122449
39	1021180	0.007791001	15.73093877551
39	1027591	0.007840001	16.065306122449
39	1034029	0.007889001	16.065306122449
39	1040341	0.007938001	15.729632653061
39	1046749	0.007987001	16.065306122449
39	1053190	0.008036001	16.065306122449
39	1059619	0.008085001	16.065306122449
39	1066027	0.008134001	16.065306122449
39	1072467	0.008183001	16.065306122449
39	1078866	0.008232001	15.73093877551
39	1085295	0.008281001	16.065306122449
39	1091735	0.008330001	16.065306122449
39	1098143	0.008379001	16.065306122449
39	1104570	0.008428001	16.065306122449
39	1111010	0.008477001	16.065306122449
39	1117418	0.008526001	16.065306122449
39	1123847	0.008575001	16.065306122449
39	1130279	0.008624001	16.065306122449
39	1136676	0.008673001	16.065306122449
39	1143114	0.008722001	16.065306122449
39	1149538	0.008771001	15.73093877551
39	1155935	0.008820001	16.065306122449
39	1162375	0.008869001	16.065306122449
39	1168796	0.008918001	15.73093877551
39	1175186	0.008967001	16.065306122449
39	1181626	0.009016001	16.065306122449
39	1188066	0.009065001	16.065306122449
39	1194451	0.009114001	15.73093877551
39	1200891	0.009163001	16.065306122449
39	1207328	0.009212001	16.065306122449
39	1213595	0.009261001	15.729632653061
39	1220035	0.009310001	16.065306122449
39	1226465	0.009359001	16.065306122449
39	1232872	0.009408001	16.065306122449
39	1239312	0.009457001	16.065306122449
39	1245742	0.009506001	16.065306122449
39	1252149	0.009555001	16.065306122449
39	1258589	0.009604001	16.065306122449
39	1265018	0.009653001	16.065306122449
39	1271426	0.009702001	16.065306122449
39	1277864	0.009751001	16.065306122449
39	1284272	0.009800001	16.065306122449
39	1290701	0.009849001	16.065306122449
39	1297141	0.009898001	16.065306122449
39	1303541	0.009947001	16.065306122449
39	1309970	0.009996001	16.065306122449
39	1319209	0.010045001	15.062204081633
39	1325844	0.010094001	3.3541224489796
39	1332545	0.010143001	2.0140408163265
39	1339321	0.010192001	2.0140408163265
39	1345662	0.010241001	2.0140408163265
39	1352405	0.010290001	2.0140408163265
39	1359142	0.010339001	2.0140408163265
39	1365482	0.010388001	2.0140408163265
39	1372250	0.010437001	2.0140408163265
39	1378828	0.010486001	2.0140408163265
39	1385185	0.010535001	2.0140408163265
39	1391391	0.010584001	1.6796734693878
39	1397798	0.010633001	2.0140408163265
39	1404097	0.010682001	2.0140408163265
39	1410423	0.010731001	2.0140408163265
39	1416745	0.010780001	2.0140408163265
39	1423044	0.010829001	2.0140408163265
39	1429370	0.010878001	2.0140408163265
39	1435665	0.010927001	2.0140408163265
39	1441983	0.010976001	2.0140408163265
39	1448235	0.011025001	2.0140408163265
39	1454348	0.011074001	2.0140408163265
39	1459824	0.011123001	2.0140408163265
39	1464886	0.011172001	2.0140408163265
39	1469924	0.011221001	2.0140408163265
39	1474987	0.011270001	2.0140408163265
39	1480053	0.011319001	2.0140408163265
39	1485710	0.011368001	5.0246530612245
39	1492548	0.011417001	16.065306122449
39	1498988	0.011466001	16.065306122449
39	1505394	0.011515001	16.065306122449
39	1511807	0.011564001	15.73093877551
39	1518247	0.011613001	16.065306122449
39	1524647	0.011662001	16.065306122449
39	1531074	0.011711001	16.065306122449
39	1537498	0.011760001	15.73093877551
39	1543903	0.011809001	16.065306122449
39	1550333	0.011858001	16.065306122449
39	1556655	0.011907001	15.729632653061
39	1563052	0.011956001	16.065306122449
39	1569492	0.012005001	16.065306122449
39	1575932	0.012054001	16.065306122449
39	1582329	0.012103001	16.065306122449
39	1588769	0.012152001	16.065306122449
39	1595209	0.012201001	16.065306122449
39	1601608	0.012250001	16.065306122449
39	1608048	0.012299001	16.065306122449
39	1614488	0.012348001	16.065306122449
39	1620883	0.012397001	16.065306122449
39	1627314	0.012446001	16.065306122449
39	1633753	0.012495001	16.065306122449
39	1640143	0.012544001	16.065306122449
39	1646583	0.012593001	16.065306122449
39	1653013	0.012642001	16.065306122449
39	1659418	0.012691001	16.065306122449
39	1665842	0.012740001	15.73093877551
39	1672272	0.012789001	16.065306122449
39	1678677	0.012838001	16.065306122449
39	1685101	0.012887001	15.73093877551
39	1691522	0.012936001	16.065306122449
39	1697930	0.012985001	16.065306122449
39	1704368	0.013034001	16.065306122449
39	1710757	0.013083001	15.73093877551
39	1717189	0.013132001	16.065306122449
39	1723627	0.013181001	16.065306122449
39	1729917	0.013230001	15.729632653061
39	1736348	0.013279001	16.065306122449
39	1742788	0.013328001	16.065306122449
39	1749196	0.013377001	16.065306122449
39	1755625	0.013426001	16.065306122449
39	1762056	0.013475001	15.73093877551
39	1768453	0.013524001	16.065306122449
39	1774893	0.013573001	16.065306122449
39	1781333	0.013622001	16.065306122449
39	1787730	0.013671001	16.065306122449
39	1794168	0.013720001	16.065306122449
39	1800608	0.013769001	16.065306122449
39	1807005	0.013818001	16.065306122449
39	1813437	0.013867001	16.065306122449
39	1819877	0.013916001	16.065306122449
39	1826274	0.013965001	16.065306122449
39	1832712	0.014014001	16.065306122449
39	1839135	0.014063001	15.73093877551
39	1845533	0.014112001	16.065306122449
39	1851971	0.014161001	16.065306122449
39	1858384	0.014210001	15.73093877551
39	1864784	0.014259001	16.065306122449
39	1871226	0.014308001	16.065306122449
39	1877654	0.014357001	16.065306122449
39	1884049	0.014406001	15.73093877551
39	1890489	0.014455001	16.065306122449
39	1896909	0.014504001	16.065306122449
39	1903193	0.014553001	15.729632653061
39	1909633	0.014602001	16.065306122449
39	1916041	0.014651001	16.065306122449
39	1922470	0.014700001	16.065306122449
39	1928910	0.014749001	16.065306122449
39	1935318	0.014798001	16.065306122449
39	1941747	0.014847001	16.065306122449
39	1948187	0.014896001	16.065306122449
39	1954595	0.014945001	16.065306122449
39	1961024	0.014994001	16.065306122449
39	1967462	0.015043001	16.065306122449
39	1973859	0.015092001	16.065306122449
39	1980299	0.015141001	16.065306122449
39	1986731	0.015190001	16.065306122449
39	1993128	0.015239001	16.065306122449
39	1999568	0.015288001	16.065306122449
39	2006006	0.015337001	16.065306122449
39	2012389	0.015386001	15.73093877551
39	2018829	0.015435001	16.065306122449
39	2025266	0.015484001	16.065306122449
39	2031640	0.015533001	15.73093877551
39	2038079	0.015582001	15.73093877551
39	2044517	0.015631001	16.065306122449
39	2050890	0.015680001	15.73093877551
39	2057330	0.015729001	16.065306122449
39	2063756	0.015778001	16.065306122449
39	2070165	0.015827001	16.065306122449
39	2076487	0.015876001	15.729632653061
39	2082917	0.015925001	16.065306122449
39	2089324	0.015974001	16.065306122449
39	2095764	0.016023001	16.065306122449
39	2102193	0.016072001	16.065306122449
39	2108601	0.016121001	16.065306122449
39	2115041	0.016170001	16.065306122449
39	2121449	0.016219001	16.065306122449
39	2127878	0.016268001	16.065306122449
39	2134318	0.016317001	16.065306122449
39	2140724	0.016366001	16.065306122449
39	2147155	0.016415001	16.065306122449
39	2153595	0.016464001	16.065306122449
39	2159995	0.016513001	16.065306122449
39	2166424	0.016562001	16.065306122449
39	2172855	0.016611001	16.065306122449
39	2179261	0.016660001	16.065306122449
39	2185674	0.016709001	15.73093877551
39	2192114	0.016758001	16.065306122449
39	2198509	0.016807001	16.065306122449
39	2204933	0.016856001	15.73093877551
39	2211373	0.016905001	16.065306122449
39	2217762	0.016954001	16.065306122449
39	2224184	0.017003001	15.73093877551
39	2230624	0.017052001	16.065306122449
39	2237021	0.017101001	16.065306122449
39	2243459	0.017150001	16.065306122449
39	2249780	0.017199001	15.729632653061
39	2256178	0.017248001	16.065306122449
39	2262618	0.017297001	16.065306122449
39	2269048	0.017346001	16.065306122449
39	2275455	0.017395001	16.065306122449
39	2281895	0.017444001	16.065306122449
39	2288327	0.017493001	16.065306122449
39	2294734	0.017542001	16.065306122449
39	2301174	0.017591001	16.065306122449
39	2307603	0.017640001	16.065306122449
39	2314000	0.017689001	15.73093877551
39	2320440	0.017738001	16.065306122449
39	2326869	0.017787001	16.065306122449
39	2333269	0.017836001	16.065306122449
39	2339709	0.017885001	16.065306122449
39	2346117	0.017934001	16.065306122449
39	2352544	0.017983001	16.065306122449
39	2358968	0.018032001	15.73093877551
39	2365376	0.018081001	16.065306122449
39	2371803	0.018130001	16.065306122449
39	2378227	0.018179001	15.73093877551
39	2384627	0.018228001	16.065306122449
39	2391056	0.018277001	16.065306122449
39	2397478	0.018326001	15.73093877551
39	2403875	0.018375001	16.065306122449
39	2410315	0.018424001	16.065306122449
39	2416753	0.018473001	16.065306122449
39	2423034	0.018522001	15.729632653061
39	2429474	0.018571001	16.065306122449
39	2435914	0.018620001	16.065306122449
39	2442311	0.018669001	16.065306122449
39	2448742	0.018718001	16.065306122449
39	2455181	0.018767001	16.065306122449
39	2461579	0.018816001	16.065306122449
39	2468019	0.018865001	16.065306122449
39	2474458	0.018914001	16.065306122449
39	2480856	0.018963001	16.065306122449
39	2487294	0.019012001	16.065306122449
39	2493724	0.019061001	16.065306122449
39	2500131	0.019110001	16.065306122449
39	2506563	0.019159001	16.065306122449
39	2512992	0.019208001	16.065306122449
39	2519400	0.019257001	16.065306122449
39	2525838	0.019306001	16.065306122449
39	2532251	0.019355001	15.73093877551
39	2538659	0.019404001	16.065306122449
39	2545097	0.019453001	16.065306122449
39	2551481	0.019502001	15.73093877551
39	2557912	0.019551001	16.065306122449
39	2564350	0.019600001	16.065306122449
39	2570743	0.019649001	15.73093877551
39	2577175	0.019698001	16.065306122449
39	2583611	0.019747001	16.065306122449
39	2590005	0.019796001	15.73093877551
39	2596319	0.019845001	15.729632653061
39	2602759	0.019894001	16.065306122449
39	2609156	0.019943001	16.065306122449
39	2615596	0.019992001	16.065306122449
39	2622091	0.020041001	16.065306122449
39	2628488	0.020090001	16.065306122449
39	2634928	0.020139001	16.065306122449
39	2641368	0.020188001	16.065306122449
39	2647765	0.020237001	16.065306122449
39	2654205	0.020286001	16.065306122449
39	2660642	0.020335001	16.065306122449
39	2667040	0.020384001	16.065306122449
39	2673480	0.020433001	16.065306122449
39	2679911	0.020482001	16.065306122449
39	2686309	0.020531001	16.065306122449
39	2692749	0.020580001	16.065306122449
39	2699179	0.020629001	16.065306122449
39	2705570	0.020678001	15.73093877551
39	2712010	0.020727001	16.065306122449
39	2718437	0.020776001	16.065306122449
39	2724820	0.020825001	15.73093877551
39	2731260	0.020874001	16.065306122449
39	2737679	0.020923001	16.065306122449
39	2744071	0.020972001	15.73093877551
39	2750511	0.021021001	16.065306122449
39	2756916	0.021070001	16.065306122449
39	2763346	0.021119001	16.065306122449
39	2769668	0.021168001	15.729632653061
39	2776076	0.021217001	16.065306122449
39	2782505	0.021266001	16.065306122449
39	2788945	0.021315001	16.065306122449
39	2795353	0.021364001	16.065306122449
39	2801782	0.021413001	16.065306122449
39	2808222	0.021462001	16.065306122449
39	2814619	0.021511001	16.065306122449
39	2821059	0.021560001	16.065306122449
39	2827499	0.021609001	16.065306122449
39	2833896	0.021658001	16.065306122449
39	2840336	0.021707001	16.065306122449
39	2846776	0.021756001	16.065306122449
39	2853165	0.021805001	16.065306122449
39	2859596	0.021854001	15.73093877551
39	2866036	0.021903001	16.065306122449
39	2872415	0.021952001	15.73093877551
39	2878855	0.022001001	16.065306122449
39	2885294	0.022050001	16.065306122449
39	2891690	0.022099001	16.065306122449
39	2898114	0.022148001	15.73093877551
39	2904543	0.022197001	16.065306122449
39	2910941	0.022246001	16.065306122449
39	2917365	0.022295001	15.73093877551
39	2923791	0.022344001	16.065306122449
39	2930202	0.022393001	16.065306122449
39	2936640	0.022442001	16.065306122449
39	2942951	0.022491001	15.729632653061
39	2949359	0.022540001	16.065306122449
39	2955799	0.022589001	16.065306122449
39	2962207	0.022638001	16.065306122449
39	2968636	0.022687001	16.065306122449
39	2975078	0.022736001	16.065306122449
39	2981486	0.022785001	16.065306122449
39	2987915	0.022834001	16.065306122449
39	2994355	0.022883001	16.065306122449
39	3000754	0.022932001	16.065306122449
39	3007181	0.022981001	16.065306122449
39	3013621	0.023030001	16.065306122449
39	3020018	0.023079001	16.065306122449
39	3026450	0.023128001	16.065306122449
39	3032890	0.023177001	16.065306122449
39	3039287	0.023226001	16.065306122449
39	3045709	0.023275001	15.73093877551
39	3052149	0.023324001	16.065306122449
39	3058546	0.023373001	16.065306122449
39	3064984	0.023422001	16.065306122449
39	3071407	0.023471001	15.73093877551
39	3077797	0.023520001	16.065306122449
39	3084235	0.023569001	16.065306122449
39	3090658	0.023618001	15.73093877551
39	3097056	0.023667001	16.065306122449
39	3103496	0.023716001	16.065306122449
39	3109926	0.023765001	16.065306122449
39	3116215	0.023814001	15.729632653061
39	3122655	0.023863001	16.065306122449
39	3129085	0.023912001	16.065306122449
39	3135483	0.023961001	15.73093877551
39	3141923	0.024010001	16.065306122449
39	3148352	0.024059001	16.065306122449
39	3154760	0.024108001	16.065306122449
39	3161200	0.024157001	16.065306122449
39	3167608	0.024206001	16.065306122449
39	3174037	0.024255001	16.065306122449
39	3180475	0.024304001	16.065306122449
39	3186883	0.024353001	16.065306122449
39	3193312	0.024402001	16.065306122449
39	3199744	0.024451001	16.065306122449
39	3206152	0.024500001	16.065306122449
39	3212581	0.024549001	16.065306122449
39	3219003	0.024598001	15.73093877551
39	3225400	0.024647001	16.065306122449
39	3231840	0.024696001	16.065306122449
39	3238278	0.024745001	16.065306122449
39	3244653	0.024794001	15.73093877551
39	3251093	0.024843001	16.065306122449
39	3257531	0.024892001	16.065306122449
39	3263916	0.024941001	15.73093877551
39	3270352	0.024990001	16.065306122449
39	3276783	0.025039001	16.065306122449
39	3283100	0.025088001	15.729632653061
39	3289500	0.025137001	16.065306122449
39	3295939	0.025186001	16.065306122449
39	3302337	0.025235001	16.065306122449
39	3308777	0.025284001	16.065306122449
39	3315207	0.025333001	16.065306122449
39	3321614	0.025382001	16.065306122449
39	3328054	0.025431001	16.065306122449
39	3334484	0.025480001	16.065306122449
39	3340891	0.025529001	16.065306122449
39	3347331	0.025578001	16.065306122449
39	3353758	0.025627001	16.065306122449
39	3360166	0.025676001	16.065306122449
39	3366606	0.025725001	16.065306122449
39	3373006	0.025774001	16.065306122449
39	3379435	0.025823001	16.065306122449
39	3385875	0.025872001	16.065306122449
39	3392267	0.025921001	15.73093877551
39	3398696	0.025970001	16.065306122449
39	3405136	0.026019001	16.065306122449
39	3411533	0.026068001	15.73093877551
39	3417946	0.026117001	15.73093877551
39	3424386	0.026166001	16.065306122449
39	3430773	0.026215001	16.065306122449
39	3437197	0.026264001	15.73093877551
39	3443637	0.026313001	16.065306122449
39	3450034	0.026362001	16.065306122449
39	3456354	0.026411001	15.729632653061
39	3462794	0.026460001	16.065306122449
39	3469191	0.026509001	16.065306122449
39	3475631	0.026558001	16.065306122449
39	3482071	0.026607001	16.065306122449
39	3488468	0.026656001	16.065306122449
[...]
716	751596	0.005733001	32.11493877551
716	758034	0.005782001	32.11493877551
716	764431	0.005831001	31.780571428571
716	770871	0.005880001	32.11493877551
716	777312	0.005929001	32.11493877551
716	783702	0.005978001	31.780571428571
716	790142	0.006027001	32.11493877551
716	796579	0.006076001	32.11493877551
716	802952	0.006125001	31.780571428571
716	809392	0.006174001	32.11493877551
716	815822	0.006223001	32.11493877551
716	822211	0.006272001	31.780571428571
716	828651	0.006321001	32.11493877551
716	835072	0.006370001	32.11493877551
716	841478	0.006419001	31.780571428571
716	847902	0.006468001	32.11493877551
716	854328	0.006517001	32.11493877551
716	860737	0.006566001	31.779265306122
716	867059	0.006615001	32.11493877551
716	873467	0.006664001	32.11493877551
716	879896	0.006713001	31.780571428571
716	886336	0.006762001	32.11493877551
716	892744	0.006811001	32.11493877551
716	899173	0.006860001	31.780571428571
716	905613	0.006909001	32.11493877551
716	912023	0.006958001	32.11493877551
716	918452	0.007007001	31.780571428571
716	924892	0.007056001	32.11493877551
716	931287	0.007105001	31.780571428571
716	937718	0.007154001	32.11493877551
716	944158	0.007203001	32.11493877551
716	950555	0.007252001	31.780571428571
716	956987	0.007301001	32.11493877551
716	963427	0.007350001	32.11493877551
716	969822	0.007399001	31.780571428571
716	976246	0.007448001	32.11493877551
716	982685	0.007497001	32.11493877551
716	989083	0.007546001	31.780571428571
716	995505	0.007595001	32.11493877551
716	1001943	0.007644001	32.11493877551
716	1008334	0.007693001	31.780571428571
716	1014772	0.007742001	32.11493877551
716	1021182	0.007791001	32.11493877551
716	1027593	0.007840001	31.779265306122
716	1034031	0.007889001	32.11493877551
716	1040343	0.007938001	32.11493877551
716	1046751	0.007987001	31.780571428571
716	1053192	0.008036001	32.11493877551
716	1059621	0.008085001	32.11493877551
716	1066029	0.008134001	31.780571428571
716	1072469	0.008183001	32.11493877551
716	1078868	0.008232001	32.11493877551
716	1085297	0.008281001	31.780571428571
716	1091737	0.008330001	32.11493877551
716	1098145	0.008379001	32.11493877551
716	1104572	0.008428001	31.780571428571
716	1111012	0.008477001	32.11493877551
716	1117420	0.008526001	32.11493877551
716	1123849	0.008575001	31.780571428571
716	1130281	0.008624001	32.11493877551
716	1136678	0.008673001	31.780571428571
716	1143116	0.008722001	32.11493877551
716	1149540	0.008771001	32.11493877551
716	1155937	0.008820001	31.780571428571
716	1162377	0.008869001	32.11493877551
716	1168798	0.008918001	32.11493877551
716	1175188	0.008967001	31.780571428571
716	1181628	0.009016001	32.11493877551
716	1188068	0.009065001	32.11493877551
716	1194453	0.009114001	31.779265306122
716	1200893	0.009163001	32.11493877551
716	1207330	0.009212001	32.11493877551
716	1213597	0.009261001	31.780571428571
716	1220037	0.009310001	32.11493877551
716	1226467	0.009359001	32.11493877551
716	1232874	0.009408001	31.780571428571
716	1239314	0.009457001	32.11493877551
716	1245744	0.009506001	32.11493877551
716	1252151	0.009555001	31.780571428571
716	1258591	0.009604001	32.11493877551
716	1265020	0.009653001	32.11493877551
716	1271428	0.009702001	31.780571428571
716	1277866	0.009751001	32.11493877551
716	1284274	0.009800001	32.11493877551
716	1290703	0.009849001	31.780571428571
716	1297143	0.009898001	32.11493877551
716	1303543	0.009947001	32.11493877551
716	1309972	0.009996001	31.780571428571
716	1319211	0.010045001	32.11493877551
716	1325846	0.010094001	5.3655510204082
716	1332547	0.010143001	4.0280816326531
716	1339323	0.010192001	4.0280816326531
716	1345664	0.010241001	4.0280816326531
716	1352407	0.010290001	4.0280816326531
716	1359144	0.010339001	4.0280816326531
716	1365484	0.010388001	4.0280816326531
716	1372252	0.010437001	4.0280816326531
716	1378830	0.010486001	4.0280816326531
716	1385187	0.010535001	4.0280816326531
716	1391393	0.010584001	3.6924081632653
716	1397800	0.010633001	4.0280816326531
716	1404099	0.010682001	4.0280816326531
716	1410425	0.010731001	4.0280816326531
716	1416747	0.010780001	4.0280816326531
716	1423046	0.010829001	4.0280816326531
716	1429372	0.010878001	4.0280816326531
716	1435667	0.010927001	4.0280816326531
716	1441985	0.010976001	4.0280816326531
716	1448237	0.011025001	4.0280816326531
716	1454350	0.011074001	4.0280816326531
716	1459826	0.011123001	4.0280816326531
716	1464888	0.011172001	4.0280816326531
716	1469926	0.011221001	4.0280816326531
716	1474989	0.011270001	4.0280816326531
716	1480055	0.011319001	4.0280816326531
716	1485712	0.011368001	10.38106122449
716	1492550	0.011417001	31.780571428571
716	1498990	0.011466001	32.11493877551
716	1505396	0.011515001	32.11493877551
716	1511809	0.011564001	31.780571428571
716	1518249	0.011613001	32.11493877551
716	1524649	0.011662001	32.11493877551
716	1531076	0.011711001	31.780571428571
716	1537500	0.011760001	32.11493877551
716	1543905	0.011809001	32.11493877551
716	1550335	0.011858001	31.779265306122
716	1556657	0.011907001	32.11493877551
716	1563054	0.011956001	31.780571428571
716	1569494	0.012005001	32.11493877551
716	1575934	0.012054001	32.11493877551
716	1582331	0.012103001	31.780571428571
716	1588771	0.012152001	32.11493877551
716	1595211	0.012201001	32.11493877551
716	1601610	0.012250001	31.780571428571
716	1608050	0.012299001	32.11493877551
716	1614490	0.012348001	32.11493877551
716	1620885	0.012397001	31.780571428571
716	1627316	0.012446001	32.11493877551
716	1633755	0.012495001	32.11493877551
716	1640145	0.012544001	31.780571428571
716	1646585	0.012593001	32.11493877551
716	1653015	0.012642001	32.11493877551
716	1659420	0.012691001	31.780571428571
716	1665844	0.012740001	32.11493877551
716	1672274	0.012789001	32.11493877551
716	1678679	0.012838001	31.780571428571
716	1685103	0.012887001	32.11493877551
716	1691524	0.012936001	32.11493877551
716	1697932	0.012985001	31.780571428571
716	1704370	0.013034001	32.11493877551
716	1710759	0.013083001	32.11493877551
716	1717191	0.013132001	31.779265306122
716	1723629	0.013181001	32.11493877551
716	1729919	0.013230001	32.11493877551
716	1736350	0.013279001	31.780571428571
716	1742790	0.013328001	32.11493877551
716	1749198	0.013377001	32.11493877551
716	1755627	0.013426001	31.780571428571
716	1762058	0.013475001	32.11493877551
716	1768455	0.013524001	31.780571428571
716	1774895	0.013573001	32.11493877551
716	1781335	0.013622001	32.11493877551
716	1787732	0.013671001	31.780571428571
716	1794170	0.013720001	32.11493877551
716	1800610	0.013769001	32.11493877551
716	1807007	0.013818001	31.780571428571
716	1813439	0.013867001	32.11493877551
716	1819879	0.013916001	32.11493877551
716	1826276	0.013965001	31.780571428571
716	1832714	0.014014001	32.11493877551
716	1839137	0.014063001	32.11493877551
716	1845535	0.014112001	31.780571428571
716	1851973	0.014161001	32.11493877551
716	1858386	0.014210001	32.11493877551
716	1864786	0.014259001	31.780571428571
716	1871228	0.014308001	32.11493877551
716	1877656	0.014357001	32.11493877551
716	1884051	0.014406001	31.779265306122
716	1890491	0.014455001	32.11493877551
716	1896911	0.014504001	32.116244897959
716	1903195	0.014553001	31.779265306122
716	1909635	0.014602001	32.11493877551
716	1916043	0.014651001	32.11493877551
716	1922472	0.014700001	31.780571428571
716	1928912	0.014749001	32.11493877551
716	1935320	0.014798001	32.11493877551
716	1941749	0.014847001	31.780571428571
716	1948189	0.014896001	32.11493877551
716	1954597	0.014945001	32.11493877551
716	1961026	0.014994001	31.780571428571
716	1967464	0.015043001	32.11493877551
716	1973861	0.015092001	31.780571428571
716	1980301	0.015141001	32.11493877551
716	1986733	0.015190001	32.11493877551
716	1993130	0.015239001	31.780571428571
716	1999570	0.015288001	32.11493877551
716	2006008	0.015337001	32.11493877551
716	2012391	0.015386001	31.780571428571
716	2018831	0.015435001	32.11493877551
716	2025268	0.015484001	32.11493877551
716	2031642	0.015533001	31.780571428571
716	2038081	0.015582001	32.11493877551
716	2044519	0.015631001	32.11493877551
716	2050892	0.015680001	31.780571428571
716	2057332	0.015729001	32.11493877551
716	2063758	0.015778001	32.11493877551
716	2070167	0.015827001	31.779265306122
716	2076489	0.015876001	32.11493877551
716	2082919	0.015925001	32.11493877551
716	2089326	0.015974001	31.780571428571
716	2095766	0.016023001	32.11493877551
716	2102195	0.016072001	32.11493877551
716	2108603	0.016121001	31.780571428571
716	2115043	0.016170001	32.11493877551
716	2121451	0.016219001	32.11493877551
716	2127880	0.016268001	31.780571428571
716	2134320	0.016317001	32.11493877551
716	2140726	0.016366001	32.11493877551
716	2147157	0.016415001	31.780571428571
716	2153597	0.016464001	32.11493877551
716	2159997	0.016513001	32.11493877551
716	2166426	0.016562001	31.780571428571
716	2172857	0.016611001	32.11493877551
716	2179263	0.016660001	32.11493877551
716	2185676	0.016709001	31.780571428571
716	2192116	0.016758001	32.11493877551
716	2198511	0.016807001	31.780571428571
716	2204935	0.016856001	32.11493877551
716	2211375	0.016905001	32.11493877551
716	2217764	0.016954001	31.780571428571
716	2224186	0.017003001	32.11493877551
716	2230626	0.017052001	32.11493877551
716	2237023	0.017101001	31.779265306122
716	2243461	0.017150001	32.11493877551
716	2249782	0.017199001	32.11493877551
716	2256180	0.017248001	31.780571428571
716	2262620	0.017297001	32.11493877551
716	2269050	0.017346001	32.11493877551
716	2275457	0.017395001	31.780571428571
716	2281897	0.017444001	32.11493877551
716	2288329	0.017493001	32.11493877551
716	2294736	0.017542001	31.780571428571
716	2301176	0.017591001	32.11493877551
716	2307605	0.017640001	32.11493877551
716	2314002	0.017689001	31.780571428571
716	2320442	0.017738001	32.11493877551
716	2326871	0.017787001	32.11493877551
716	2333271	0.017836001	31.780571428571
716	2339711	0.017885001	32.11493877551
716	2346119	0.017934001	32.11493877551
716	2352546	0.017983001	31.780571428571
716	2358970	0.018032001	32.11493877551
716	2365378	0.018081001	32.11493877551
716	2371805	0.018130001	31.780571428571
716	2378229	0.018179001	32.11493877551
716	2384629	0.018228001	32.11493877551
716	2391058	0.018277001	31.780571428571
716	2397480	0.018326001	32.11493877551
716	2403877	0.018375001	31.779265306122
716	2410317	0.018424001	32.11493877551
716	2416755	0.018473001	32.11493877551
716	2423036	0.018522001	31.780571428571
716	2429476	0.018571001	32.11493877551
716	2435916	0.018620001	32.11493877551
716	2442313	0.018669001	31.780571428571
716	2448744	0.018718001	32.11493877551
716	2455183	0.018767001	32.11493877551
716	2461581	0.018816001	31.780571428571
716	2468021	0.018865001	32.11493877551
716	2474460	0.018914001	32.11493877551
716	2480858	0.018963001	31.780571428571
716	2487296	0.019012001	32.11493877551
716	2493726	0.019061001	32.11493877551
716	2500133	0.019110001	31.780571428571
716	2506565	0.019159001	32.11493877551
716	2512994	0.019208001	32.11493877551
716	2519402	0.019257001	31.780571428571
716	2525840	0.019306001	32.11493877551
716	2532253	0.019355001	32.11493877551
716	2538661	0.019404001	31.780571428571
716	2545099	0.019453001	32.11493877551
716	2551483	0.019502001	32.11493877551
716	2557914	0.019551001	31.780571428571
716	2564352	0.019600001	32.11493877551
716	2570745	0.019649001	32.11493877551
716	2577177	0.019698001	31.779265306122
716	2583613	0.019747001	32.116244897959
716	2590007	0.019796001	32.11493877551
716	2596321	0.019845001	31.779265306122
716	2602761	0.019894001	32.11493877551
716	2609158	0.019943001	31.780571428571
716	2615598	0.019992001	32.11493877551
716	2622093	0.020041001	32.11493877551
716	2628490	0.020090001	31.780571428571
716	2634930	0.020139001	32.11493877551
716	2641370	0.020188001	32.11493877551
716	2647767	0.020237001	31.780571428571
716	2654207	0.020286001	32.11493877551
716	2660644	0.020335001	32.11493877551
716	2667042	0.020384001	31.780571428571
716	2673482	0.020433001	32.11493877551
716	2679913	0.020482001	32.11493877551
716	2686311	0.020531001	31.780571428571
716	2692751	0.020580001	32.11493877551
716	2699181	0.020629001	32.11493877551
716	2705572	0.020678001	31.780571428571
716	2712012	0.020727001	32.11493877551
716	2718439	0.020776001	32.11493877551
716	2724822	0.020825001	31.780571428571
716	2731262	0.020874001	32.11493877551
716	2737681	0.020923001	32.11493877551
716	2744073	0.020972001	31.780571428571
716	2750513	0.021021001	32.11493877551
716	2756918	0.021070001	32.11493877551
716	2763348	0.021119001	31.779265306122
716	2769670	0.021168001	32.11493877551
716	2776078	0.021217001	32.11493877551
716	2782507	0.021266001	31.780571428571
716	2788947	0.021315001	32.11493877551
716	2795355	0.021364001	32.11493877551
716	2801784	0.021413001	31.780571428571
716	2808224	0.021462001	32.11493877551
716	2814621	0.021511001	31.780571428571
716	2821061	0.021560001	32.11493877551
716	2827501	0.021609001	32.11493877551
716	2833898	0.021658001	31.780571428571
716	2840338	0.021707001	32.11493877551
716	2846778	0.021756001	32.11493877551
716	2853167	0.021805001	31.780571428571
716	2859598	0.021854001	32.11493877551
716	2866038	0.021903001	32.11493877551
716	2872417	0.021952001	31.780571428571
716	2878857	0.022001001	32.11493877551
716	2885296	0.022050001	32.11493877551
716	2891692	0.022099001	31.780571428571
716	2898116	0.022148001	32.11493877551
716	2904545	0.022197001	32.11493877551
716	2910943	0.022246001	31.780571428571
716	2917367	0.022295001	32.11493877551
716	2923793	0.022344001	32.11493877551
716	2930204	0.022393001	31.779265306122
716	2936642	0.022442001	32.11493877551
716	2942953	0.022491001	32.11493877551
716	2949361	0.022540001	31.780571428571
716	2955801	0.022589001	32.11493877551
716	2962209	0.022638001	32.11493877551
716	2968638	0.022687001	31.780571428571
716	2975080	0.022736001	32.11493877551
716	2981488	0.022785001	32.11493877551
716	2987917	0.022834001	31.780571428571
716	2994357	0.022883001	32.11493877551
716	3000756	0.022932001	32.11493877551
716	3007183	0.022981001	31.780571428571
716	3013623	0.023030001	32.11493877551
716	3020020	0.023079001	31.780571428571
716	3026452	0.023128001	32.11493877551
716	3032892	0.023177001	32.11493877551
716	3039289	0.023226001	31.780571428571
716	3045711	0.023275001	32.11493877551
716	3052151	0.023324001	32.11493877551
716	3058548	0.023373001	31.780571428571
716	3064986	0.023422001	32.11493877551
716	3071409	0.023471001	32.11493877551
716	3077799	0.023520001	31.780571428571
716	3084237	0.023569001	32.11493877551
716	3090660	0.023618001	32.11493877551
716	3097058	0.023667001	31.779265306122
716	3103498	0.023716001	32.11493877551
716	3109928	0.023765001	32.11493877551
716	3116217	0.023814001	31.780571428571
716	3122657	0.023863001	32.11493877551
716	3129087	0.023912001	32.11493877551
716	3135485	0.023961001	31.780571428571
716	3141925	0.024010001	32.11493877551
716	3148354	0.024059001	32.11493877551
716	3154762	0.024108001	31.780571428571
716	3161202	0.024157001	32.11493877551
716	3167610	0.024206001	32.11493877551
716	3174039	0.024255001	31.780571428571
716	3180477	0.024304001	32.11493877551
716	3186885	0.024353001	32.11493877551
716	3193314	0.024402001	31.780571428571
716	3199746	0.024451001	32.11493877551
716	3206154	0.024500001	32.11493877551
716	3212583	0.024549001	31.780571428571
716	3219005	0.024598001	32.11493877551
716	3225402	0.024647001	31.780571428571
716	3231842	0.024696001	32.11493877551
716	3238280	0.024745001	32.11493877551
716	3244655	0.024794001	31.780571428571
716	3251095	0.024843001	32.11493877551
716	3257533	0.024892001	32.11493877551
716	3263918	0.024941001	31.779265306122
716	3270354	0.024990001	32.116244897959
716	3276785	0.025039001	32.11493877551
716	3283102	0.025088001	31.779265306122
716	3289502	0.025137001	32.11493877551
716	3295941	0.025186001	32.11493877551
716	3302339	0.025235001	31.780571428571
716	3308779	0.025284001	32.11493877551
716	3315209	0.025333001	32.11493877551
716	3321616	0.025382001	31.780571428571
716	3328056	0.025431001	32.11493877551
716	3334486	0.025480001	32.11493877551
716	3340893	0.025529001	31.780571428571
716	3347333	0.025578001	32.11493877551
716	3353760	0.025627001	32.11493877551
716	3360168	0.025676001	31.780571428571
716	3366608	0.025725001	32.11493877551
716	3373008	0.025774001	32.11493877551
716	3379437	0.025823001	31.780571428571
716	3385877	0.025872001	32.11493877551
716	3392269	0.025921001	32.11493877551
716	3398698	0.025970001	31.780571428571
716	3405138	0.026019001	32.11493877551
716	3411535	0.026068001	32.11493877551
716	3417948	0.026117001	31.780571428571
716	3424388	0.026166001	32.11493877551
716	3430775	0.026215001	31.780571428571
716	3437199	0.026264001	32.11493877551
716	3443639	0.026313001	32.11493877551
716	3450036	0.026362001	31.779265306122
716	3456356	0.026411001	32.11493877551
716	3462796	0.026460001	32.11493877551
716	3469193	0.026509001	31.780571428571
716	3475633	0.026558001	32.11493877551
716	3482073	0.026607001	32.11493877551
716	3488470	0.026656001	31.780571428571
716	3494910	0.026705001	32.11493877551
716	3501349	0.026754001	32.11493877551
716	3507747	0.026803001	31.780571428571
716	3514187	0.026852001	32.11493877551
716	3520619	0.026901001	32.11493877551
716	3527024	0.026950001	31.780571428571
716	3533464	0.026999001	32.11493877551
716	3539894	0.027048001	32.11493877551
716	3546284	0.027097001	31.780571428571
716	3552724	0.027146001	32.11493877551
716	3559151	0.027195001	32.11493877551
716	3565543	0.027244001	31.780571428571
716	3571983	0.027293001	32.11493877551
716	3578391	0.027342001	32.11493877551
716	3584818	0.027391001	31.780571428571
716	3591242	0.027440001	32.11493877551
716	3597642	0.027489001	32.11493877551
716	3604069	0.027538001	31.780571428571
716	3610493	0.027587001	32.11493877551
716	3616898	0.027636001	32.11493877551
716	3623330	0.027685001	31.779265306122
716	3629650	0.027734001	32.11493877551
716	3636058	0.027783001	32.11493877551
716	3642487	0.027832001	31.780571428571
716	3648927	0.027881001	32.11493877551
716	3655324	0.027930001	31.780571428571
716	3661766	0.027979001	32.11493877551
716	3668206	0.028028001	32.11493877551
716	3674603	0.028077001	31.780571428571
716	3681043	0.028126001	32.11493877551
716	3687474	0.028175001	32.11493877551
716	3693869	0.028224001	31.780571428571
716	3700309	0.028273001	32.11493877551
716	3706748	0.028322001	32.11493877551
716	3713146	0.028371001	31.780571428571
716	3719578	0.028420001	32.11493877551
716	3726008	0.028469001	32.11493877551
716	3732413	0.028518001	31.780571428571
716	3738837	0.028567001	32.11493877551
716	3745267	0.028616001	32.11493877551
716	3751674	0.028665001	31.780571428571
716	3758112	0.028714001	32.11493877551
716	3764517	0.028763001	32.11493877551
716	3770925	0.028812001	31.780571428571
716	3777363	0.028861001	32.11493877551
716	3783773	0.028910001	32.11493877551
716	3790184	0.028959001	31.779265306122
716	3796628	0.029008001	32.11493877551
716	3802914	0.029057001	32.11493877551
716	3809343	0.029106001	31.780571428571
716	3815783	0.029155001	32.11493877551
716	3822182	0.029204001	32.11493877551
716	3828611	0.029253001	31.780571428571
716	3835051	0.029302001	32.11493877551
716	3841459	0.029351001	32.11493877551
716	3847888	0.029400001	31.780571428571
716	3854328	0.029449001	32.11493877551
716	3860725	0.029498001	31.780571428571
716	3867163	0.029547001	32.11493877551
716	3873603	0.029596001	32.11493877551
716	3880000	0.029645001	31.780571428571
716	3886440	0.029694001	32.11493877551
716	3892872	0.029743001	32.11493877551
716	3899269	0.029792001	31.780571428571
716	3905707	0.029841001	32.11493877551
716	3912130	0.029890001	32.11493877551
716	3918528	0.029939001	31.780571428571
716	3924968	0.029988001	32.11493877551
