version 2
run General-0-20200106-09:46:05-29952
attr configname General
attr datetime 20200106-09:46:05
attr experiment General
attr inifile evaluation_fairness.ini
attr iterationvars ""
attr iterationvars2 $repetition=0
attr measurement ""
attr network ib_model.examples.evaluation_fairness.demo_network
attr processid 29952
attr repetition 0
attr replication #0
attr resultdir results
attr runnumber 0
attr seedset 0
param **.CCT_Timer 25us
param **.H_1.app.dstLid 5
param **.H_1.app.msg2msgGap 2ns
param **.H_1.app.msgLength 4194304*20B
param **.H_1.app.msgNum 1
param **.H_10.**.endTime 0.011
param **.H_10.**.startTime 0
param **.H_10.app.dstLid 0
param **.H_10.app.msg2msgGap 2ns
param **.H_10.app.msgLength 4194304*20B
param **.H_10.app.msgNum 200
param **.H_11.**.endTime 0.011
param **.H_11.**.startTime 0
param **.H_11.app.dstLid 0
param **.H_11.app.msg2msgGap 2ns
param **.H_11.app.msgLength 4194304*20B
param **.H_11.app.msgNum 200
param **.H_2.app.msg2msgGap 2ns
param **.H_2.app.msgLength 4194304*20B
param **.H_2.app.msgNum 1
param **.H_3.app.msg2msgGap 2ns
param **.H_3.app.msgLength 4194304B
param **.H_3.app.msgNum 1
param **.H_4.app.msg2msgGap 2ns
param **.H_4.app.msgLength 4194304*20B
param **.H_4.app.msgNum 1
param **.H_5.app.msg2msgGap 2ns
param **.H_5.app.msgLength 4194304*20B
param **.H_5.app.msgNum 1
param **.H_6.app.msg2msgGap 2ns
param **.H_6.app.msgLength 4194304*20B
param **.H_6.app.msgNum 200
param **.H_7.app.msg2msgGap 2ns
param **.H_7.app.msgLength 4194304*20B
param **.H_7.app.msgNum 200
param **.H_8.app.msg2msgGap 2ns
param **.H_8.app.msgLength 4194304*20B
param **.H_8.app.msgNum 200
param **.H_9.app.msg2msgGap 2ns
param **.H_9.app.msgLength 4194304*20B
param **.H_9.app.msgNum 200
param **.ISWDelay 50ns
param **.SW**.fdbsVecFile "\"3h_2s.fdbs\""
param **.SW_1**.fdbIndex 0
param **.SW_2**.fdbIndex 1
param **.VSWDelay 50ns
param **.app.dstSeqVecFile "\"\""
param **.app.dstSeqVecIdx 0
param **.dstMode "\"param\""
param **.flit2FlitGap 0.001ns
param **.flitSize 2048B
param **.genDlyPerByte 0.25ns
param **.ibuf.lossyMode false
param **.maxContPkts 10
param **.maxQueuedPerVL 10
param **.maxVL 0
param **.msgLenMode "\"param\""
param **.msgLenProb "\"1 1 1 1\""
param **.msgLenSet "\"4096 4096 4096\""
param **.msgMtuLen 2048B
param **.msgSQ 0
param **.obuf.credMinTime 4.096us
param **.obuf.width 4
param **.on_cc 0
param **.on_newcc 1
param **.on_throughput_gen 1
param **.on_throughput_obuf 1
param **.pkt2PktGap 0.001ns
param **.pktFwdType "\"Pktfwd\""
param **.pktfwd.ARAdaptThd 4
param **.pktfwd.AdaptMode "\"none\""
param **.pktfwd.GreedyRandSize 3
param **.pktfwd.LIDBindTime 2us
param **.pktfwd.OPSelAlgo "\"greedy\""
param **.pktfwd.OPSelOffsetByDLID 0
param **.pktfwd.TQBusy1Thd 20
param **.pktfwd.TQBusy2Thd 40
param **.pktfwd.TQBusy3Thd 80
param **.pktfwd.statRepTime 10us
param **.popDlyPerByte 0.25ns
param **.sink.hiccupDelay 10000us
param **.sink.hiccupDuration 0.001us
param **.sink.repFirstPackets 0
param **.speed 10Gbps
param **.startStatCol 100us
param **.timeStep_us 25us
param **.vlarb.highVLArbEntries "\"0:1 1:20 2:40 3:80\""
param **.vlarb.lowVLArbEntries "\"0:1 1:20 2:40 3:80\""
param **.vlarb.markrate 1
param **.vlarb.useFCFSRQArb false
param **.vlarb.vlHighLimit 16
param **.vlarb.width 4
param **.width 4
param **H_**.ibuf.maxStatic* 32
param **H_**.obuf.size 5
param **H_**.vlarb.busWidth 16B
param **H_**.vlarb.coreFreq 1000MHz
param **H_1.**.endTime 0.04
param **H_1.**.startTime 0
param **H_2**.dstLid 5
param **H_2.**.endTime 0.04
param **H_2.**.startTime 0
param **H_3**.dstLid 0
param **H_3.**.endTime 1
param **H_3.**.startTime 0
param **H_4**.dstLid 0
param **H_4.**.endTime 0.011
param **H_4.**.startTime 0
param **H_5**.dstLid 0
param **H_5.**.endTime 1
param **H_5.**.startTime 0
param **H_6**.dstLid 5
param **H_6.**.endTime 0.011
param **H_6.**.startTime 0.01
param **H_7**.dstLid 0
param **H_7.**.endTime 0.011
param **H_7.**.startTime 0.01
param **H_8**.dstLid 0
param **H_8.**.endTime 0.011
param **H_8.**.startTime 0.01
param **H_9**.dstLid 0
param **H_9.**.endTime 0.011
param **H_9.**.startTime 0
param **SW**.obuf.size 5
param **SW**.port[*].ibuf.maxStatic* 32
param **SW**.vlarb.busWidth 24B
param **SW**.vlarb.coreFreq 1200MHz
param **ibuf.maxBeingSent 1
param **ibuf.totalBufferSize 1000

vector 1  demo_network.H_1.app  msgInfo  ETV
vector 25  demo_network.H_2.app  msgInfo  ETV
vector 3  demo_network.H_1.gen  Throughput  ETV
vector 27  demo_network.H_2.gen  Throughput  ETV
vector 400  demo_network.SW_2.port[1].ibuf  inputQueueLength  ETV
vector 280  demo_network.SW_1.port[1].ibuf  inputQueueLength  ETV
vector 417  demo_network.SW_2.port[2].vlarb  "StaticFreeCreditsNum in vla"  ETV
vector 103  demo_network.H_5.sink  "Received FECN"  ETV
vector 104  demo_network.H_5.sink  "Received victim"  ETV
vector 2  demo_network.H_1.gen  CCT_Index  ETV
vector 26  demo_network.H_2.gen  CCT_Index  ETV
vector 13  demo_network.H_1.obuf  Throughput-obuf  ETV
vector 37  demo_network.H_2.obuf  Throughput-obuf  ETV
vector 61  demo_network.H_3.obuf  Throughput-obuf  ETV
vector 85  demo_network.H_4.obuf  Throughput-obuf  ETV
vector 109  demo_network.H_5.obuf  Throughput-obuf  ETV
vector 133  demo_network.H_6.obuf  Throughput-obuf  ETV
vector 157  demo_network.H_7.obuf  Throughput-obuf  ETV
vector 181  demo_network.H_8.obuf  Throughput-obuf  ETV
vector 205  demo_network.H_9.obuf  Throughput-obuf  ETV
vector 229  demo_network.H_10.obuf  Throughput-obuf  ETV
vector 253  demo_network.H_11.obuf  Throughput-obuf  ETV
vector 121  demo_network.H_6.app  msgInfo  ETV
vector 123  demo_network.H_6.gen  Throughput  ETV
vector 309  demo_network.SW_1.port[3].vlarb  "StaticFreeCreditsNum in vla"  ETV
1	1	0	0
2	1340	0.000009622	32
2	2408	0.000017818	32
2	3359	0.000026014	32
2	4262	0.00003421	15.377107031573
2	5170	0.000042406	15.377107031573
2	6094	0.000050602	15.377107031573
2	6996	0.000058798	15.377107031573
2	7905	0.000066994	15.377107031573
2	8827	0.00007519	15.377107031573
2	9729	0.000083386	15.377107031573
2	10639	0.000091582	15.377107031573
2	11542	0.000099778	15.377107031573
2	12470	0.000107974	15.377107031573
2	13373	0.00011617	15.377107031573
2	14275	0.000124366	15.377107031573
2	15203	0.000132562	15.377107031573
2	16106	0.000140758	15.377107031573
2	17014	0.000148954	15.377107031573
2	17937	0.00015715	15.377107031573
2	18839	0.000165346	15.377107031573
2	19748	0.000173542	15.377107031573
2	20670	0.000181738	15.377107031573
2	21572	0.000189934	15.377107031573
2	22482	0.00019813	15.377107031573
2	23403	0.000206326	15.377107031573
2	24312	0.000214522	15.377107031573
2	25215	0.000222718	15.377107031573
2	26137	0.000230914	15.377107031573
2	27046	0.00023911	15.377107031573
2	27949	0.000247306	15.377107031573
2	28876	0.000255502	15.377107031573
2	29780	0.000263698	15.377107031573
2	30682	0.000271894	15.377107031573
2	31610	0.00028009	15.377107031573
2	32513	0.000288286	15.377107031573
2	33415	0.000296482	15.377107031573
2	34344	0.000304678	15.377107031573
2	35246	0.000312874	15.377107031573
2	36155	0.00032107	15.377107031573
2	37077	0.000329266	15.377107031573
2	37979	0.000337462	15.377107031573
2	38888	0.000345658	15.377107031573
2	39810	0.000353854	15.377107031573
2	40719	0.00036205	15.377107031573
2	41623	0.000370246	15.377107031573
2	42544	0.000378442	15.377107031573
2	43453	0.000386638	15.377107031573
2	44356	0.000394834	15.377107031573
2	45277	0.00040303	15.377107031573
2	46187	0.000411226	15.377107031573
2	47090	0.000419422	15.377107031573
2	48017	0.000427618	15.377107031573
2	48962	0.000436326	15.377107031573
2	49863	0.000444522	15.377107031573
2	50791	0.000452718	15.377107031573
2	51686	0.000460914	15.377107031573
2	52583	0.00046911	15.377107031573
2	53510	0.000477306	15.657107031573
2	54420	0.000485502	15.937107031573
2	55328	0.000493698	16.217107031573
2	56311	0.000502406	16.497107031573
2	57225	0.000510602	16.777107031573
2	58147	0.000518798	17.057107031573
2	59088	0.000526994	17.337107031573
2	60008	0.00053519	17.617107031573
2	60933	0.000543386	17.897107031573
2	61878	0.000551582	18.177107031573
2	62786	0.000559778	17.897380469073
2	63696	0.000567974	15.377107031573
2	64612	0.00057617	15.377107031573
2	65520	0.000584366	15.377107031573
2	66429	0.000592562	15.377107031573
2	67351	0.000600758	15.377107031573
2	68254	0.000608954	15.377107031573
2	69162	0.00061715	15.377107031573
2	70084	0.000625346	15.377107031573
2	70986	0.000633542	15.377107031573
2	71897	0.000641738	15.377107031573
2	72804	0.000649934	15.657107031573
2	73719	0.00065813	15.937107031573
2	74627	0.000666326	16.217107031573
2	75540	0.000674522	16.497107031573
2	76470	0.000682718	16.777107031573
2	77382	0.000690914	17.057107031573
2	78311	0.00069911	17.337107031573
2	79245	0.000707306	17.617107031573
2	80170	0.000715502	17.897107031573
2	81095	0.000723698	18.177107031573
2	82033	0.000731894	18.457107031573
2	82935	0.00074009	18.177243750323
2	83844	0.000748286	15.377107031573
2	84771	0.000756482	15.377107031573
2	85667	0.000764678	15.377107031573
2	86575	0.000772874	15.377107031573
2	87503	0.00078107	15.377107031573
2	88448	0.000789778	15.377107031573
2	89388	0.000798486	15.377107031573
2	90316	0.000806682	15.377107031573
2	91214	0.000814878	15.377107031573
2	92111	0.000823074	15.377107031573
2	93037	0.00083127	15.377107031573
2	93937	0.000839466	15.657107031573
2	94836	0.000847662	15.937107031573
2	95756	0.000855858	16.217107031573
2	96670	0.000864054	16.497107031573
2	97593	0.00087225	16.777107031573
2	98526	0.000880446	17.057107031573
2	99456	0.000888642	17.337107031573
2	100370	0.000896838	17.617107031573
2	101313	0.000905034	17.897107031573
2	102238	0.00091323	18.177107031573
2	103163	0.000921426	18.457107031573
2	104092	0.000929622	18.177243750323
2	105000	0.000937818	15.377107031573
2	105895	0.000946014	15.377107031573
2	106823	0.00095421	15.377107031573
2	107731	0.000962406	15.377107031573
2	108631	0.000970602	15.377107031573
2	109554	0.000978798	15.377107031573
2	110461	0.000986994	15.377107031573
2	111362	0.00099519	15.377107031573
2	112283	0.001003386	15.377107031573
2	113190	0.001011582	15.377107031573
2	114097	0.001019778	15.377107031573
2	115003	0.001027974	15.377107031573
2	115912	0.00103617	15.377107031573
2	116820	0.001044366	15.657107031573
2	117737	0.001052562	15.937107031573
2	118648	0.001060758	16.217107031573
2	119565	0.001068954	16.497107031573
2	120505	0.00107715	16.777107031573
2	121419	0.001085346	17.057107031573
2	122342	0.001093542	17.337107031573
2	123279	0.001101738	17.617107031573
2	124198	0.001109934	17.897107031573
2	125121	0.00111813	17.617653906573
2	126047	0.001126326	15.377107031573
2	126944	0.001134522	15.377107031573
2	127852	0.001142718	15.377107031573
2	128778	0.001150914	15.377107031573
2	129678	0.00115911	15.377107031573
2	130582	0.001167306	15.377107031573
2	131621	0.001176014	15.377107031573
2	132571	0.001184724	15.377107031573
2	133476	0.00119292	15.377107031573
2	134401	0.001201116	15.377107031573
2	135296	0.001209312	15.377107031573
2	136193	0.001217508	15.377107031573
2	137121	0.001225704	15.657107031573
2	138028	0.0012339	15.937107031573
2	138936	0.001242096	16.217107031573
2	139866	0.001250292	16.497107031573
2	140777	0.001258488	16.777107031573
2	141703	0.001266684	17.057107031573
2	142628	0.00127488	17.337107031573
2	143572	0.001283076	17.617107031573
2	144493	0.001291272	17.897107031573
2	145419	0.001299468	18.177107031573
2	146364	0.001307664	18.457107031573
2	147270	0.00131586	18.177243750323
2	148179	0.001324056	15.377107031573
2	149104	0.001332252	15.377107031573
2	150008	0.001340448	15.377107031573
2	150912	0.001348644	15.377107031573
2	151838	0.00135684	15.377107031573
2	152741	0.001365036	15.377107031573
2	153648	0.001373232	15.377107031573
2	154574	0.001381428	15.377107031573
2	155475	0.001389624	15.377107031573
2	156379	0.00139782	15.377107031573
2	157306	0.001406016	15.377107031573
2	158199	0.001414212	15.377107031573
2	159101	0.001422408	15.657107031573
2	160027	0.001430604	15.937107031573
2	160938	0.0014388	16.217107031573
2	161850	0.001446996	16.497107031573
2	162794	0.001455192	16.777107031573
2	163719	0.001463388	17.057107031573
2	164638	0.001471584	17.337107031573
2	165577	0.00147978	17.617107031573
2	166502	0.001487976	17.897107031573
2	167428	0.001496172	18.177107031573
2	168363	0.001504368	18.457107031573
2	169268	0.001512564	18.177243750323
2	170176	0.00152076	15.377107031573
2	171098	0.001528956	15.377107031573
2	172003	0.001537152	15.377107031573
2	172910	0.001545348	15.377107031573
2	173831	0.001553544	15.377107031573
2	174735	0.00156174	15.377107031573
2	175643	0.001569936	15.377107031573
2	176563	0.001578132	15.377107031573
2	177515	0.00158684	15.377107031573
2	178417	0.001595036	15.377107031573
2	179331	0.001603232	15.377107031573
2	180240	0.001611428	15.377107031573
2	181140	0.001619624	15.657107031573
2	182064	0.00162782	15.937107031573
2	182972	0.001636016	16.217107031573
2	183881	0.001644212	16.497107031573
2	184824	0.001652408	16.777107031573
2	185739	0.001660604	17.057107031573
2	186669	0.0016688	17.337107031573
2	187604	0.001676996	17.617107031573
2	188530	0.001685192	17.897107031573
2	189457	0.001693388	18.177107031573
2	190403	0.001701584	18.457107031573
2	191312	0.00170978	18.177243750323
2	192222	0.001717976	15.377107031573
2	193143	0.001726172	15.377107031573
2	194046	0.001734368	15.377107031573
2	194955	0.001742564	15.377107031573
2	195876	0.00175076	15.377107031573
2	196780	0.001758956	15.377107031573
2	197689	0.001767152	15.377107031573
2	198611	0.001775348	15.377107031573
2	199514	0.001783544	15.377107031573
2	200423	0.00179174	15.377107031573
2	201331	0.001799936	15.377107031573
2	202238	0.001808132	15.377107031573
2	203146	0.001816328	15.377107031573
2	204058	0.001824524	15.657107031573
2	204984	0.00183272	15.937107031573
2	205888	0.001840916	16.217107031573
2	206806	0.001849112	16.497107031573
2	207748	0.001857308	16.777107031573
2	208664	0.001865504	17.057107031573
2	209623	0.001874212	17.337107031573
2	210569	0.001882408	17.617107031573
2	211494	0.001890604	17.897107031573
2	212420	0.0018988	18.177107031573
2	213344	0.001906996	17.897380469073
2	214251	0.001915192	15.377107031573
2	215153	0.001923388	15.377107031573
2	216081	0.001931584	15.377107031573
2	216984	0.00193978	15.377107031573
2	217892	0.001947976	15.377107031573
2	218817	0.001956172	15.377107031573
2	219719	0.001964368	15.377107031573
2	220628	0.001972564	15.377107031573
2	221549	0.00198076	15.377107031573
2	222452	0.001988956	15.377107031573
2	223360	0.001997152	15.377107031573
2	224273	0.002005348	15.377107031573
2	225181	0.002013544	15.657107031573
2	226080	0.00202174	15.937107031573
2	227007	0.002029936	16.217107031573
2	227919	0.002038132	16.497107031573
2	228843	0.002046328	16.777107031573
2	229788	0.002054524	17.057107031573
2	230706	0.00206272	17.337107031573
2	231626	0.002070916	17.617107031573
2	232570	0.002079112	17.897107031573
2	233495	0.002087308	18.177107031573
2	234415	0.002095504	18.457107031573
2	235335	0.0021037	18.177243750323
2	236241	0.002111896	15.377107031573
2	237146	0.002120092	15.377107031573
2	238070	0.002128288	15.377107031573
2	238976	0.002136484	15.377107031573
2	239880	0.00214468	15.377107031573
2	240802	0.002152876	15.377107031573
2	241708	0.002161072	15.377107031573
2	242616	0.002169268	15.377107031573
2	243581	0.002177976	15.377107031573
2	244482	0.002186172	15.377107031573
2	245379	0.002194368	15.377107031573
2	246306	0.002202564	15.377107031573
2	247205	0.00221076	15.657107031573
2	248107	0.002218956	15.937107031573
2	249035	0.002227152	16.217107031573
2	249948	0.002235348	16.497107031573
2	250870	0.002243544	16.777107031573
2	251802	0.00225174	17.057107031573
2	252733	0.002259936	17.337107031573
2	253647	0.002268132	17.617107031573
2	254591	0.002276328	17.897107031573
2	255517	0.002284524	18.177107031573
2	256443	0.00229272	18.457107031573
2	257373	0.002300916	18.177243750323
2	258280	0.002309112	15.377107031573
2	259177	0.002317308	15.377107031573
2	260108	0.002325504	15.377107031573
2	261013	0.0023337	15.377107031573
2	261913	0.002341896	15.377107031573
2	262837	0.002350092	15.377107031573
2	263743	0.002358288	15.377107031573
2	264649	0.002366484	15.377107031573
2	265547	0.00237468	15.377107031573
2	266473	0.002382876	15.377107031573
2	267378	0.002391072	15.377107031573
2	268267	0.002399268	15.377107031573
2	269195	0.002407464	15.377107031573
2	270103	0.00241566	15.657107031573
2	271006	0.002423856	15.937107031573
2	271934	0.002432052	16.217107031573
2	272846	0.002440248	16.497107031573
2	273769	0.002448444	16.777107031573
2	274700	0.00245664	17.057107031573
2	275623	0.002464836	17.337107031573
2	276541	0.002473032	17.617107031573
2	277485	0.002481228	17.897107031573
2	278403	0.002489424	17.617653906573
2	279309	0.00249762	15.377107031573
2	280226	0.002505816	15.377107031573
2	281135	0.002514012	15.377107031573
2	282041	0.002522208	15.377107031573
2	282961	0.002530404	15.377107031573
2	283865	0.0025386	15.377107031573
2	284806	0.002547308	15.377107031573
2	285831	0.002556016	15.377107031573
2	286740	0.002564212	15.377107031573
2	287642	0.002572408	15.377107031573
2	288555	0.002580604	15.377107031573
2	289457	0.0025888	15.377107031573
2	290361	0.002596996	15.657107031573
2	291282	0.002605192	15.937107031573
2	292190	0.002613388	16.217107031573
2	293104	0.002621584	16.497107031573
2	294039	0.00262978	16.777107031573
2	294960	0.002637976	17.057107031573
2	295887	0.002646172	17.337107031573
2	296832	0.002654368	17.617107031573
2	297758	0.002662564	17.897107031573
2	298683	0.00267076	18.177107031573
2	299629	0.002678956	18.457107031573
2	300535	0.002687152	18.177243750323
2	301446	0.002695348	15.377107031573
2	302361	0.002703544	15.377107031573
2	303273	0.00271174	15.377107031573
2	304179	0.002719936	15.377107031573
2	305094	0.002728132	15.377107031573
2	306023	0.002736331	15.377107031573
2	306926	0.002744524	15.377107031573
2	307848	0.00275272	15.377107031573
2	308754	0.002760916	15.377107031573
2	309657	0.002769112	15.377107031573
2	310584	0.002777308	15.377107031573
2	311486	0.002785504	15.377107031573
2	312385	0.0027937	15.657107031573
2	313304	0.002801896	15.937107031573
2	314208	0.002810092	16.217107031573
2	315118	0.002818288	16.497107031573
2	316067	0.002826484	16.777107031573
2	316977	0.00283468	17.057107031573
2	317909	0.002842876	17.337107031573
2	318893	0.002851586	17.617107031573
2	319812	0.002859782	17.897107031573
2	320738	0.002867978	18.177107031573
2	321683	0.002876174	18.457107031573
2	322586	0.00288437	18.177243750323
2	323496	0.002892566	15.377107031573
2	324417	0.002900762	15.377107031573
2	325325	0.002908958	15.377107031573
2	326229	0.002917154	15.377107031573
2	327150	0.00292535	15.377107031573
2	328061	0.002933546	15.377107031573
2	328964	0.002941742	15.377107031573
2	329866	0.002949938	15.377107031573
2	330794	0.002958134	15.377107031573
2	331695	0.00296633	15.377107031573
2	332602	0.002974526	15.377107031573
2	333518	0.002982722	15.377107031573
2	334419	0.002990918	15.657107031573
2	335324	0.002999114	15.937107031573
2	336253	0.00300731	16.217107031573
2	337162	0.003015506	16.497107031573
2	338128	0.003024214	16.777107031573
2	339078	0.00303241	17.057107031573
2	339998	0.003040606	17.337107031573
2	340918	0.003048802	17.617107031573
2	341862	0.003056998	17.897107031573
2	342782	0.003065194	18.177107031573
2	343693	0.00307339	17.897380469073
2	344618	0.003081586	15.377107031573
2	345526	0.003089782	15.377107031573
2	346426	0.003097978	15.377107031573
2	347351	0.003106174	15.377107031573
2	348260	0.00311437	15.377107031573
2	349160	0.003122566	15.377107031573
2	350088	0.003130762	15.377107031573
2	350993	0.003138958	15.377107031573
2	351895	0.003147154	15.377107031573
2	352817	0.00315535	15.377107031573
2	353722	0.003163546	15.377107031573
2	354620	0.003171742	15.657107031573
2	355547	0.003179938	15.937107031573
2	356451	0.003188134	16.217107031573
2	357370	0.00319633	16.497107031573
2	358299	0.003204526	16.777107031573
2	359209	0.003212722	17.057107031573
2	360141	0.003220918	17.337107031573
2	361121	0.003229626	17.617107031573
2	362040	0.003237822	17.897107031573
2	362966	0.003246018	18.177107031573
2	363909	0.003254214	18.457107031573
2	364818	0.00326241	18.177243750323
2	365721	0.003270606	15.377107031573
2	366643	0.003278802	15.377107031573
2	367552	0.003286998	15.377107031573
2	368454	0.003295194	15.377107031573
2	369382	0.00330339	15.377107031573
2	370286	0.003311586	15.377107031573
2	371188	0.003319782	15.377107031573
2	372116	0.003327978	15.377107031573
2	373018	0.003336174	15.377107031573
2	373924	0.00334437	15.377107031573
2	374848	0.003352566	15.377107031573
2	375743	0.003360762	15.377107031573
2	376653	0.003368958	15.657107031573
2	377570	0.003377154	15.937107031573
2	378476	0.00338535	16.217107031573
2	379399	0.003393546	16.497107031573
2	380331	0.003401742	16.777107031573
2	381257	0.003409938	17.057107031573
2	382177	0.003418134	17.337107031573
2	383115	0.00342633	17.617107031573
2	384039	0.003434526	17.897107031573
2	384960	0.003442722	18.177107031573
2	385902	0.003450918	17.897380469073
2	386809	0.003459114	15.377107031573
2	387709	0.00346731	15.377107031573
2	388637	0.003475506	15.377107031573
2	389542	0.003483702	15.377107031573
2	390442	0.003491898	15.377107031573
2	391372	0.003500094	15.377107031573
2	392278	0.00350829	15.377107031573
2	393180	0.003516486	15.377107031573
2	394086	0.003524682	15.377107031573
2	395047	0.00353339	15.377107031573
2	395954	0.003541586	15.377107031573
2	396864	0.003549782	15.377107031573
2	397766	0.003557978	15.377107031573
2	398674	0.003566174	15.657107031573
2	399582	0.00357437	15.937107031573
2	400513	0.003582566	16.217107031573
2	401424	0.003590762	16.497107031573
2	402335	0.003598958	16.777107031573
2	403288	0.003607154	17.057107031573
2	404206	0.00361535	17.337107031573
2	405129	0.003623546	17.617107031573
2	406073	0.003631742	17.897107031573
2	406993	0.003639938	18.177107031573
2	407923	0.003648134	18.457107031573
2	408851	0.00365633	18.177243750323
2	409749	0.003664526	15.377107031573
2	410655	0.003672722	15.377107031573
2	411585	0.003680918	15.377107031573
2	412482	0.003689114	15.377107031573
2	413390	0.00369731	15.377107031573
2	414319	0.003705506	15.377107031573
2	415216	0.003713702	15.377107031573
2	416125	0.003721898	15.377107031573
2	417052	0.003730094	15.377107031573
2	417948	0.00373829	15.377107031573
2	418856	0.003746486	15.377107031573
2	419783	0.003754682	15.377107031573
2	420685	0.003762878	15.657107031573
2	421574	0.003771074	15.937107031573
2	422502	0.00377927	16.217107031573
2	423426	0.003787466	16.497107031573
2	424340	0.003795662	16.777107031573
2	425272	0.003803858	17.057107031573
2	426201	0.003812054	17.337107031573
2	427117	0.00382025	17.617107031573
2	428060	0.003828446	17.897107031573
2	428985	0.003836642	18.177107031573
2	429904	0.003844838	18.457107031573
2	430826	0.003853034	18.177243750323
2	431735	0.00386123	15.377107031573
2	432637	0.003869426	15.377107031573
2	433557	0.003877622	15.377107031573
2	434466	0.003885818	15.377107031573
2	435375	0.003894014	15.377107031573
2	436337	0.003902722	15.377107031573
2	437280	0.00391143	15.377107031573
2	438187	0.003919626	15.377107031573
2	439099	0.003927822	15.377107031573
2	440001	0.003936018	15.377107031573
2	440910	0.003944214	15.377107031573
2	441824	0.00395241	15.657107031573
2	442722	0.003960606	15.937107031573
2	443626	0.003968802	16.217107031573
2	444565	0.003976998	16.497107031573
2	445486	0.003985194	16.777107031573
2	446400	0.00399339	17.057107031573
2	447345	0.004001586	17.337107031573
2	448264	0.004009782	17.617107031573
2	449187	0.004017978	17.897107031573
2	450131	0.004026174	18.177107031573
2	451057	0.00403437	18.457107031573
2	451967	0.004042566	18.177243750323
2	452893	0.004050762	15.377107031573
2	453789	0.004058958	15.377107031573
2	454697	0.004067154	15.377107031573
2	455624	0.00407535	15.377107031573
2	456519	0.004083546	15.377107031573
2	457429	0.004091742	15.377107031573
2	458336	0.004099938	15.377107031573
2	459256	0.004108134	15.377107031573
2	460158	0.00411633	15.377107031573
2	461065	0.004124526	15.377107031573
2	461985	0.004132722	15.377107031573
2	462879	0.004140918	15.377107031573
2	463788	0.004149114	15.377107031573
2	464715	0.00415731	15.657107031573
2	465610	0.004165506	15.937107031573
2	466520	0.004173702	16.217107031573
2	467460	0.004181898	16.497107031573
2	468383	0.004190094	16.777107031573
2	469295	0.00419829	17.057107031573
2	470237	0.004206486	17.337107031573
2	471155	0.004214682	17.617107031573
2	472075	0.004222878	17.897107031573
2	473016	0.004231074	17.617653906573
2	473923	0.00423927	15.377107031573
2	474820	0.004247466	15.377107031573
2	475748	0.004255662	15.377107031573
2	476655	0.004263858	15.377107031573
2	477550	0.004272054	15.377107031573
2	478598	0.004280762	15.377107031573
2	479506	0.004288958	15.377107031573
2	480460	0.004297668	15.377107031573
2	481425	0.004306376	15.377107031573
2	482328	0.004314572	15.377107031573
2	483235	0.004322768	15.377107031573
2	484154	0.004330964	15.657107031573
2	485059	0.00433916	15.937107031573
2	485969	0.004347356	16.217107031573
2	486898	0.004355552	16.497107031573
2	487809	0.004363748	16.777107031573
2	488718	0.004371944	17.057107031573
2	489707	0.004380652	17.337107031573
2	490632	0.004388848	17.617107031573
2	491555	0.004397044	17.897107031573
2	492495	0.00440524	18.177107031573
2	493420	0.004413436	18.457107031573
2	494330	0.004421632	18.177243750323
2	495251	0.004429828	15.377107031573
2	496155	0.004438024	15.377107031573
2	497064	0.00444622	15.377107031573
2	497984	0.004454416	15.377107031573
2	498893	0.004462612	15.377107031573
2	499797	0.004470808	15.377107031573
2	500723	0.004479004	15.377107031573
2	501628	0.0044872	15.377107031573
2	502529	0.004495396	15.377107031573
2	503457	0.004503592	15.377107031573
2	504359	0.004511788	15.377107031573
2	505255	0.004519984	15.377107031573
2	506183	0.00452818	15.657107031573
2	507089	0.004536376	15.937107031573
2	507995	0.004544572	16.217107031573
2	508927	0.004552768	16.497107031573
2	509837	0.004560964	16.777107031573
2	510763	0.00456916	17.057107031573
2	511700	0.004577356	17.337107031573
2	512619	0.004585552	17.617107031573
2	513543	0.004593748	17.897107031573
2	514488	0.004601944	18.177107031573
2	515398	0.00461014	17.897380469073
2	516301	0.004618336	15.377107031573
2	517222	0.004626532	15.377107031573
2	518131	0.004634728	15.377107031573
2	519035	0.004642924	15.377107031573
2	519960	0.00465112	15.377107031573
2	520865	0.004659316	15.377107031573
2	521767	0.004667512	15.377107031573
2	522696	0.004675708	15.377107031573
2	523597	0.004683904	15.377107031573
2	524493	0.0046921	15.377107031573
2	525420	0.004700296	15.657107031573
2	526329	0.004708492	15.937107031573
2	527237	0.004716688	16.217107031573
2	528148	0.004724884	16.497107031573
2	529076	0.00473308	16.777107031573
2	530003	0.004741276	17.057107031573
2	530921	0.004749472	17.337107031573
2	531864	0.004757668	17.617107031573
2	532784	0.004765864	17.897107031573
2	533709	0.00477406	18.177107031573
2	534639	0.004782256	17.897380469073
2	535542	0.004790452	15.377107031573
2	536449	0.004798648	15.377107031573
2	537372	0.004806844	15.377107031573
2	538275	0.00481504	15.377107031573
2	539183	0.004823236	15.377107031573
2	540106	0.004831432	15.377107031573
2	541011	0.004839628	15.377107031573
2	541920	0.004847824	15.377107031573
2	542840	0.00485602	15.377107031573
2	543737	0.004864216	15.377107031573
2	544645	0.004872412	15.657107031573
2	545573	0.004880608	15.937107031573
2	546483	0.004888804	16.217107031573
2	547393	0.004897	16.497107031573
2	548321	0.004905196	16.777107031573
2	549247	0.004913392	17.057107031573
2	550166	0.004921588	17.337107031573
2	551110	0.004929784	17.617107031573
2	552031	0.00493798	17.897107031573
2	552956	0.004946176	18.177107031573
2	553885	0.004954372	17.897380469073
2	554788	0.004962568	15.377107031573
2	555694	0.004970764	15.377107031573
2	556619	0.00497896	15.377107031573
2	557521	0.004987156	15.377107031573
2	558430	0.004995352	15.377107031573
2	559352	0.005003548	15.377107031573
2	560254	0.005011744	15.377107031573
2	561163	0.00501994	15.377107031573
2	562083	0.005028136	15.377107031573
2	562980	0.005036332	15.377107031573
2	563888	0.005044528	15.657107031573
2	564817	0.005052724	15.937107031573
2	565727	0.00506092	16.217107031573
2	566637	0.005069116	16.497107031573
2	567566	0.005077312	16.777107031573
2	568491	0.005085508	17.057107031573
2	569410	0.005093704	17.337107031573
2	570353	0.0051019	17.617107031573
2	571274	0.005110096	17.897107031573
2	572199	0.005118292	18.177107031573
2	573127	0.005126488	17.897380469073
2	574030	0.005134684	15.377107031573
2	574937	0.00514288	15.377107031573
2	575861	0.005151076	15.377107031573
2	576763	0.005159272	15.377107031573
2	577672	0.005167468	15.377107031573
2	578595	0.005175664	15.377107031573
2	579497	0.00518386	15.377107031573
2	580406	0.005192056	15.377107031573
2	581326	0.005200252	15.377107031573
2	582227	0.005208448	15.377107031573
2	583129	0.005216644	15.657107031573
2	584039	0.00522484	15.937107031573
2	584968	0.005233036	16.217107031573
2	585878	0.005241232	16.497107031573
2	586786	0.005249428	16.777107031573
2	587730	0.005257624	17.057107031573
2	588650	0.00526582	17.337107031573
2	589574	0.005274016	17.617107031573
2	590513	0.005282212	17.897107031573
2	591440	0.005290408	18.177107031573
2	592350	0.005298604	17.897380469073
2	593271	0.0053068	15.377107031573
2	594179	0.005314996	15.377107031573
2	595083	0.005323192	15.377107031573
2	596004	0.005331388	15.377107031573
2	596913	0.005339584	15.377107031573
2	597816	0.00534778	15.377107031573
2	598737	0.005355976	15.377107031573
2	599646	0.005364172	15.377107031573
2	600548	0.005372368	15.377107031573
2	601468	0.005380564	15.377107031573
2	602371	0.00538876	15.657107031573
2	603281	0.005396956	15.937107031573
2	604210	0.005405152	16.217107031573
2	605120	0.005413348	16.497107031573
2	606031	0.005421544	16.777107031573
2	606975	0.00542974	17.057107031573
2	607894	0.005437936	17.337107031573
2	608818	0.005446132	17.617107031573
2	609756	0.005454328	17.897107031573
2	610682	0.005462524	18.177107031573
2	611592	0.00547072	17.897380469073
2	612513	0.005478916	15.377107031573
2	613422	0.005487112	15.377107031573
2	614325	0.005495308	15.377107031573
2	615246	0.005503504	15.377107031573
2	616155	0.0055117	15.377107031573
2	617058	0.005519896	15.377107031573
2	617979	0.005528092	15.377107031573
2	618888	0.005536288	15.377107031573
2	619789	0.005544484	15.377107031573
2	620715	0.00555268	15.377107031573
2	621612	0.005560876	15.657107031573
2	622522	0.005569072	15.937107031573
2	623451	0.005577268	16.217107031573
2	624361	0.005585464	16.497107031573
2	625272	0.00559366	16.777107031573
2	626216	0.005601856	17.057107031573
2	627135	0.005610052	17.337107031573
2	628060	0.005618248	17.617107031573
2	628998	0.005626444	17.897107031573
2	629924	0.00563464	18.177107031573
2	630834	0.005642836	17.897380469073
2	631755	0.005651032	15.377107031573
2	632664	0.005659228	15.377107031573
2	633567	0.005667424	15.377107031573
2	634488	0.00567562	15.377107031573
2	635397	0.005683816	15.377107031573
2	636300	0.005692012	15.377107031573
2	637227	0.005700208	15.377107031573
2	638131	0.005708404	15.377107031573
2	639032	0.0057166	15.377107031573
2	639939	0.005724796	15.377107031573
2	640855	0.005732992	15.657107031573
2	641765	0.005741188	15.937107031573
2	642675	0.005749384	16.217107031573
2	643604	0.00575758	16.497107031573
2	644515	0.005765776	16.777107031573
2	645440	0.005773972	17.057107031573
2	646378	0.005782168	17.337107031573
2	647303	0.005790364	17.617107031573
2	648223	0.00579856	17.897107031573
2	649168	0.005806756	18.177107031573
2	650078	0.005814952	17.897380469073
2	650980	0.005823148	15.377107031573
2	651908	0.005831344	15.377107031573
2	652811	0.00583954	15.377107031573
2	653713	0.005847736	15.377107031573
2	654641	0.005855932	15.377107031573
2	655544	0.005864128	15.377107031573
2	656451	0.005872324	15.377107031573
2	657374	0.00588052	15.377107031573
2	658278	0.005888716	15.377107031573
2	659186	0.005896912	15.377107031573
2	660102	0.005905108	15.657107031573
2	661012	0.005913304	15.937107031573
2	661922	0.0059215	16.217107031573
2	662852	0.005929696	16.497107031573
2	663764	0.005937892	16.777107031573
2	664687	0.005946088	17.057107031573
2	665625	0.005954284	17.337107031573
2	666550	0.00596248	17.617107031573
2	667470	0.005970676	17.897107031573
2	668415	0.005978872	18.177107031573
2	669325	0.005987068	17.897380469073
2	670227	0.005995264	15.377107031573
2	671155	0.00600346	15.377107031573
2	672058	0.006011656	15.377107031573
2	672960	0.006019852	15.377107031573
2	673889	0.006028048	15.377107031573
2	674791	0.006036244	15.377107031573
2	675700	0.00604444	15.377107031573
2	676623	0.006052636	15.377107031573
2	677524	0.006060832	15.377107031573
2	678431	0.006069028	15.377107031573
2	679347	0.006077224	15.657107031573
2	680257	0.00608542	15.937107031573
2	681167	0.006093616	16.217107031573
2	682096	0.006101812	16.497107031573
2	683008	0.006110008	16.777107031573
2	683932	0.006118204	17.057107031573
2	684870	0.0061264	17.337107031573
2	685794	0.006134596	17.617107031573
2	686714	0.006142792	17.897107031573
2	687659	0.006150988	18.177107031573
2	688568	0.006159184	17.897380469073
2	689470	0.00616738	15.377107031573
2	690398	0.006175576	15.377107031573
2	691301	0.006183772	15.377107031573
2	692203	0.006191968	15.377107031573
2	693132	0.006200164	15.377107031573
2	694034	0.00620836	15.377107031573
2	694941	0.006216556	15.377107031573
2	695845	0.006224752	15.377107031573
2	696765	0.006232948	15.377107031573
2	697674	0.006241144	15.377107031573
2	698570	0.00624934	15.657107031573
2	699499	0.006257536	15.937107031573
2	700409	0.006265732	16.217107031573
2	701319	0.006273928	16.497107031573
2	702250	0.006282124	16.777107031573
2	703174	0.00629032	17.057107031573
2	704090	0.006298516	17.337107031573
2	705034	0.006306712	17.617107031573
2	705954	0.006314908	17.897107031573
2	706879	0.006323104	18.177107031573
2	707807	0.0063313	17.897380469073
2	708709	0.006339496	15.377107031573
2	709618	0.006347692	15.377107031573
2	710540	0.006355888	15.377107031573
2	711442	0.006364084	15.377107031573
2	712352	0.00637228	15.377107031573
2	713273	0.006380476	15.377107031573
2	714180	0.006388672	15.377107031573
2	715084	0.006396868	15.377107031573
2	716004	0.006405064	15.377107031573
2	716912	0.00641326	15.377107031573
2	717808	0.006421456	15.377107031573
2	718728	0.006429652	15.657107031573
2	719634	0.006437848	15.937107031573
2	720546	0.006446044	16.217107031573
2	721482	0.00645424	16.497107031573
2	722443	0.006462948	16.777107031573
2	723369	0.006471144	17.057107031573
2	724306	0.00647934	17.337107031573
2	725224	0.006487536	17.617107031573
2	726146	0.006495732	17.897107031573
2	727088	0.006503928	18.177107031573
2	727990	0.006512124	17.897380469073
2	728893	0.00652032	15.377107031573
2	729818	0.006528516	15.377107031573
2	730715	0.006536712	15.377107031573
2	731619	0.006544908	15.377107031573
2	732543	0.006553104	15.377107031573
2	733440	0.0065613	15.377107031573
2	734345	0.006569496	15.377107031573
2	735267	0.006577692	15.377107031573
2	736168	0.006585888	15.377107031573
2	737068	0.006594084	15.377107031573
2	737989	0.00660228	15.377107031573
2	738889	0.006610476	15.657107031573
2	739788	0.006618672	15.937107031573
2	740708	0.006626868	16.217107031573
2	741623	0.006635064	16.497107031573
2	742530	0.00664326	16.777107031573
2	743457	0.006651456	17.057107031573
2	744384	0.006659652	17.337107031573
2	745393	0.00666836	17.617107031573
2	746336	0.006676556	17.897107031573
2	747262	0.006684752	18.177107031573
2	748188	0.006692948	18.457107031573
2	749116	0.006701144	18.177243750323
2	750019	0.00670934	15.377107031573
2	750926	0.006717536	15.377107031573
2	751855	0.006725735	15.377107031573
2	752759	0.006733928	15.377107031573
2	753672	0.006742124	15.377107031573
2	754590	0.00675032	15.377107031573
2	755493	0.006758516	15.377107031573
2	756402	0.006766712	15.377107031573
2	757304	0.006774908	15.377107031573
2	758234	0.006783104	15.377107031573
2	759134	0.0067913	15.377107031573
2	760028	0.006799496	15.377107031573
2	760957	0.006807692	15.657107031573
2	761856	0.006815888	15.937107031573
2	762766	0.006824084	16.217107031573
2	763708	0.00683228	16.497107031573
2	764615	0.006840476	16.777107031573
2	765546	0.006848672	17.057107031573
2	766479	0.006856868	17.337107031573
2	767398	0.006865064	17.617107031573
2	768326	0.00687326	17.897107031573
2	769271	0.006881456	18.177107031573
2	770177	0.006889652	17.897380469073
2	771081	0.006897848	15.377107031573
2	772002	0.006906044	15.377107031573
2	772915	0.00691424	15.377107031573
2	773814	0.006922436	15.377107031573
2	774747	0.006930635	15.377107031573
2	775664	0.006938828	15.377107031573
2	776561	0.006947024	15.377107031573
2	777493	0.00695522	15.377107031573
2	778391	0.006963416	15.377107031573
2	779285	0.006971612	15.377107031573
2	780218	0.006979808	15.657107031573
2	781125	0.006988004	15.937107031573
2	782023	0.0069962	16.217107031573
2	782967	0.007004396	16.497107031573
2	783872	0.007012592	16.777107031573
2	784802	0.007020788	17.057107031573
2	785735	0.007028984	17.337107031573
2	786654	0.00703718	17.617107031573
2	787582	0.007045376	17.897107031573
2	788527	0.007053572	18.177107031573
2	789437	0.007061768	17.897380469073
2	790340	0.007069964	15.377107031573
2	791257	0.00707816	15.377107031573
2	792171	0.007086356	15.377107031573
2	793070	0.007094552	15.377107031573
2	793996	0.007102748	15.377107031573
2	794905	0.007110944	15.377107031573
2	795802	0.00711914	15.377107031573
2	796734	0.007127336	15.377107031573
2	797641	0.007135532	15.377107031573
2	798531	0.007143728	15.377107031573
2	799464	0.007151924	15.657107031573
2	800371	0.00716012	15.937107031573
2	801281	0.007168316	16.217107031573
2	802213	0.007176512	16.497107031573
2	803118	0.007184708	16.777107031573
2	804048	0.007192904	17.057107031573
2	804986	0.0072011	17.337107031573
2	805900	0.007209296	17.617107031573
2	806831	0.007217492	17.897107031573
2	807775	0.007225688	18.177107031573
2	808685	0.007233884	17.897380469073
2	809588	0.00724208	15.377107031573
2	810505	0.007250276	15.377107031573
2	811419	0.007258472	15.377107031573
2	812316	0.007266668	15.377107031573
2	813228	0.007274864	15.377107031573
2	814151	0.00728306	15.377107031573
2	815048	0.007291256	15.377107031573
2	815962	0.007299452	15.377107031573
2	816883	0.007307648	15.377107031573
2	817778	0.007315844	15.377107031573
2	818686	0.00732404	15.657107031573
2	819613	0.007332236	15.937107031573
2	820520	0.007340432	16.217107031573
2	821433	0.007348628	16.497107031573
2	822357	0.007356824	16.777107031573
2	823287	0.00736502	17.057107031573
2	824206	0.007373216	17.337107031573
2	825149	0.007381412	17.617107031573
2	826070	0.007389608	17.897107031573
2	826995	0.007397804	18.177107031573
2	827924	0.007406	17.897380469073
2	828827	0.007414196	15.377107031573
2	829725	0.007422392	15.377107031573
2	830658	0.007430588	15.377107031573
2	831560	0.007438784	15.377107031573
2	832469	0.00744698	15.377107031573
2	833392	0.007455176	15.377107031573
2	834289	0.007463372	15.377107031573
2	835204	0.007471568	15.377107031573
2	836124	0.007479764	15.377107031573
2	837020	0.00748796	15.377107031573
2	837928	0.007496156	15.657107031573
2	838857	0.007504352	15.937107031573
2	839765	0.007512548	16.217107031573
2	840677	0.007520744	16.497107031573
2	841606	0.00752894	16.777107031573
2	842532	0.007537136	17.057107031573
2	843453	0.007545332	17.337107031573
2	844395	0.007553528	17.617107031573
2	845316	0.007561724	17.897107031573
2	846242	0.00756992	18.177107031573
2	847170	0.007578116	17.897380469073
2	848073	0.007586312	15.377107031573
2	848982	0.007594508	15.377107031573
2	849905	0.007602704	15.377107031573
2	850807	0.0076109	15.377107031573
2	851716	0.007619096	15.377107031573
2	852638	0.007627292	15.377107031573
2	853539	0.007635488	15.377107031573
2	854450	0.007643684	15.377107031573
2	855370	0.00765188	15.377107031573
2	856272	0.007660076	15.377107031573
2	857175	0.007668272	15.657107031573
2	858104	0.007676468	15.937107031573
2	859014	0.007684664	16.217107031573
2	859924	0.00769286	16.497107031573
2	860853	0.007701056	16.777107031573
2	861778	0.007709252	17.057107031573
2	862696	0.007717448	17.337107031573
2	863639	0.007725644	17.617107031573
2	864559	0.00773384	17.897107031573
2	865484	0.007742036	18.177107031573
2	866413	0.007750232	17.897380469073
2	867315	0.007758428	15.377107031573
2	868223	0.007766624	15.377107031573
2	869127	0.00777482	15.377107031573
2	870048	0.007783016	15.377107031573
2	870957	0.007791212	15.377107031573
2	871860	0.007799408	15.377107031573
2	872781	0.007807604	15.377107031573
2	873691	0.0078158	15.377107031573
2	874591	0.007823996	15.377107031573
2	875518	0.007832192	15.377107031573
2	876415	0.007840388	15.377107031573
2	877315	0.007848584	15.657107031573
2	878239	0.00785678	15.937107031573
2	879147	0.007864976	16.217107031573
2	880055	0.007873172	16.497107031573
2	881042	0.007881882	16.777107031573
2	881973	0.007890078	17.057107031573
2	882892	0.007898274	17.337107031573
2	883831	0.00790647	17.617107031573
2	884756	0.007914666	17.897107031573
2	885677	0.007922862	18.177107031573
2	886608	0.007931058	17.897380469073
2	887514	0.007939254	15.377107031573
2	888421	0.00794745	15.377107031573
2	889341	0.007955646	15.377107031573
2	890248	0.007963842	15.377107031573
2	891156	0.007972038	15.377107031573
2	892078	0.007980234	15.377107031573
2	892989	0.00798843	15.377107031573
2	893893	0.007996626	15.377107031573
2	894815	0.008004822	15.377107031573
2	895720	0.008013018	15.377107031573
2	896624	0.008021214	15.377107031573
2	897539	0.00802941	15.657107031573
2	898442	0.008037606	15.937107031573
2	899352	0.008045802	16.217107031573
2	900289	0.008053998	16.497107031573
2	901199	0.008062194	16.777107031573
2	902110	0.00807039	17.057107031573
2	903062	0.008078586	17.337107031573
2	904023	0.008087294	17.617107031573
2	904942	0.00809549	17.897107031573
2	905887	0.008103686	18.177107031573
2	906813	0.008111882	18.457107031573
2	907722	0.008120078	18.177243750323
2	908644	0.008128274	15.377107031573
2	909546	0.00813647	15.377107031573
2	910456	0.008144666	15.377107031573
2	911377	0.008152862	15.377107031573
2	912286	0.008161058	15.377107031573
2	913190	0.008169254	15.377107031573
2	914111	0.00817745	15.377107031573
2	915020	0.008185646	15.377107031573
2	915922	0.008193842	15.377107031573
2	916847	0.008202038	15.377107031573
2	917752	0.008210234	15.377107031573
2	918646	0.00821843	15.377107031573
2	919576	0.008226626	15.657107031573
2	920475	0.008234822	15.937107031573
2	921380	0.008243018	16.217107031573
2	922322	0.008251214	16.497107031573
2	923235	0.00825941	16.777107031573
2	924160	0.008267606	17.057107031573
2	925099	0.008275802	17.337107031573
2	926019	0.008283998	17.617107031573
2	926944	0.008292194	17.897107031573
2	927883	0.00830039	18.177107031573
2	928806	0.008308586	17.897380469073
2	929714	0.008316782	15.377107031573
2	930612	0.008324978	15.377107031573
2	931541	0.008333174	15.377107031573
2	932447	0.00834137	15.377107031573
2	933344	0.008349566	15.377107031573
2	934273	0.008357762	15.377107031573
2	935181	0.008365958	15.377107031573
2	936081	0.008374154	15.377107031573
2	937052	0.008382862	15.377107031573
2	937948	0.008391058	15.377107031573
2	938854	0.008399254	15.377107031573
2	939782	0.00840745	15.377107031573
2	940666	0.008415646	15.377107031573
2	941575	0.008423842	15.657107031573
2	942500	0.008432038	15.937107031573
2	943410	0.008440234	16.217107031573
2	944319	0.00844843	16.497107031573
2	945248	0.008456626	16.777107031573
2	946183	0.008464822	17.057107031573
2	947100	0.008473018	17.337107031573
2	948043	0.008481214	17.617107031573
2	948967	0.00848941	17.897107031573
2	949888	0.008497606	18.177107031573
2	950838	0.008505802	18.457107031573
2	951749	0.008513998	18.177243750323
2	952649	0.008522194	15.377107031573
2	953572	0.00853039	15.377107031573
2	954483	0.008538586	15.377107031573
2	955382	0.008546782	15.377107031573
2	956307	0.008554978	15.377107031573
2	957217	0.008563174	15.377107031573
2	958116	0.00857137	15.377107031573
2	959043	0.008579566	15.377107031573
2	959949	0.008587762	15.377107031573
2	960847	0.008595958	15.377107031573
2	961774	0.008604154	15.377107031573
2	962680	0.00861235	15.377107031573
2	963583	0.008620546	15.657107031573
2	964493	0.008628742	15.937107031573
2	965401	0.008636938	16.217107031573
2	966321	0.008645134	16.497107031573
2	967253	0.00865333	16.777107031573
2	968164	0.008661526	17.057107031573
2	969094	0.008669722	17.337107031573
2	970027	0.008677918	17.617107031573
2	970952	0.008686114	17.897107031573
2	971877	0.00869431	18.177107031573
2	972815	0.008702506	18.457107031573
2	973718	0.008710702	18.177243750323
2	974626	0.008718898	15.377107031573
2	975549	0.008727094	15.377107031573
2	976451	0.00873529	15.377107031573
2	977358	0.008743486	15.377107031573
2	978286	0.008751682	15.377107031573
2	979231	0.00876039	15.377107031573
2	980174	0.008769098	15.377107031573
2	981098	0.008777294	15.377107031573
2	981990	0.00878549	15.377107031573
2	982889	0.008793686	15.377107031573
2	983814	0.008801882	15.377107031573
2	984708	0.008810078	15.657107031573
2	985605	0.008818274	15.937107031573
2	986524	0.00882647	16.217107031573
2	987441	0.008834666	16.497107031573
2	988356	0.008842862	16.777107031573
2	989295	0.008851058	17.057107031573
2	990218	0.008859254	17.337107031573
2	991138	0.00886745	17.617107031573
2	992079	0.008875646	17.897107031573
2	993001	0.008883842	18.177107031573
2	993926	0.008892038	18.457107031573
2	994853	0.008900234	18.177243750323
2	995754	0.00890843	15.377107031573
2	996655	0.008916626	15.377107031573
2	997561	0.008924822	15.377107031573
2	998481	0.008933018	15.377107031573
2	999382	0.008941214	15.377107031573
2	1000288	0.00894941	15.377107031573
2	1001213	0.008957606	15.377107031573
2	1002115	0.008965802	15.377107031573
2	1003014	0.008973998	15.377107031573
2	1003940	0.008982194	15.377107031573
2	1004841	0.00899039	15.377107031573
2	1005733	0.008998586	15.377107031573
2	1006659	0.009006782	15.657107031573
2	1007567	0.009014978	15.937107031573
2	1008473	0.009023174	16.217107031573
2	1009406	0.00903137	16.497107031573
2	1010318	0.009039566	16.777107031573
2	1011240	0.009047762	17.057107031573
2	1012179	0.009055958	17.337107031573
2	1013103	0.009064154	17.617107031573
2	1014023	0.00907235	17.897107031573
2	1014962	0.009080546	18.177107031573
2	1015869	0.009088742	17.897380469073
2	1016776	0.009096938	15.377107031573
2	1017697	0.009105134	15.377107031573
2	1018604	0.00911333	15.377107031573
2	1019506	0.009121526	15.377107031573
2	1020432	0.009129722	15.377107031573
2	1021335	0.009137918	15.377107031573
2	1022235	0.009146114	15.377107031573
2	1023162	0.00915431	15.377107031573
2	1024064	0.009162506	15.377107031573
2	1024958	0.009170702	15.377107031573
2	1025885	0.009178898	15.657107031573
2	1026793	0.009187094	15.937107031573
2	1027701	0.00919529	16.217107031573
2	1028632	0.009203486	16.497107031573
2	1029542	0.009211682	16.777107031573
2	1030468	0.009219878	17.057107031573
2	1031404	0.009228074	17.337107031573
2	1032328	0.00923627	17.617107031573
2	1033247	0.009244466	17.897107031573
2	1034185	0.009252662	18.177107031573
2	1035108	0.009260858	17.897380469073
2	1036015	0.009269054	15.377107031573
2	1036936	0.00927725	15.377107031573
2	1037838	0.009285446	15.377107031573
2	1038746	0.009293642	15.377107031573
2	1039666	0.009301838	15.377107031573
2	1040569	0.009310034	15.377107031573
2	1041477	0.00931823	15.377107031573
2	1042399	0.009326426	15.377107031573
2	1043300	0.009334622	15.377107031573
2	1044324	0.00934333	15.377107031573
2	1045241	0.009351526	15.377107031573
2	1046150	0.009359722	15.377107031573
2	1047051	0.009367918	15.377107031573
2	1047966	0.009376114	15.377107031573
2	1048868	0.00938431	15.657107031573
2	1049770	0.009392506	15.937107031573
2	1050741	0.009401216	16.217107031573
2	1051658	0.009409412	16.497107031573
2	1052583	0.009417608	16.777107031573
2	1053526	0.009425804	17.057107031573
2	1054446	0.009434	17.337107031573
2	1055365	0.009442196	17.617107031573
2	1056310	0.009450392	17.897107031573
2	1057234	0.009458588	18.177107031573
2	1058152	0.009466784	18.457107031573
2	1059061	0.00947498	18.177243750323
2	1059982	0.009483176	15.377107031573
2	1060887	0.009491372	15.377107031573
2	1061796	0.009499568	15.377107031573
2	1062716	0.009507764	15.377107031573
2	1063620	0.00951596	15.377107031573
2	1064529	0.009524156	15.377107031573
2	1065448	0.009532352	15.377107031573
2	1066357	0.009540548	15.377107031573
2	1067261	0.009548744	15.377107031573
2	1068225	0.009557452	15.377107031573
2	1069132	0.009565648	15.377107031573
2	1070027	0.009573844	15.377107031573
2	1070947	0.00958204	15.657107031573
2	1071850	0.009590236	15.937107031573
2	1072757	0.009598432	16.217107031573
2	1073673	0.009606628	16.497107031573
2	1074640	0.009615336	16.777107031573
2	1075560	0.009623532	17.057107031573
2	1076496	0.009631728	17.337107031573
2	1077465	0.009640436	17.617107031573
2	1078389	0.009648632	17.897107031573
2	1079328	0.009656828	18.177107031573
2	1080254	0.009665024	18.457107031573
2	1081180	0.00967322	18.737107031573
2	1082107	0.009681416	18.457175390948
2	1083015	0.009689612	15.377107031573
2	1083920	0.009697808	15.377107031573
2	1084841	0.009706004	15.377107031573
2	1085749	0.0097142	15.377107031573
2	1086654	0.009722396	15.377107031573
2	1087576	0.009730592	15.377107031573
2	1088484	0.009738788	15.377107031573
2	1089386	0.009746984	15.377107031573
2	1090309	0.00975518	15.377107031573
2	1091216	0.009763376	15.377107031573
2	1092160	0.009772084	15.377107031573
2	1093087	0.00978028	15.377107031573
2	1093980	0.009788476	15.657107031573
2	1094887	0.009796672	15.937107031573
2	1095810	0.009804868	16.217107031573
2	1096718	0.009813064	16.497107031573
2	1097656	0.009821772	16.777107031573
2	1098595	0.009829968	17.057107031573
2	1099503	0.009838164	17.337107031573
2	1100533	0.009846872	17.617107031573
2	1101469	0.009855068	17.897107031573
2	1102394	0.009863264	18.177107031573
2	1103325	0.009871463	18.457107031573
2	1104265	0.009879656	18.177243750323
2	1105169	0.009887852	15.377107031573
2	1106075	0.009896048	15.377107031573
2	1106998	0.009904244	15.377107031573
2	1107908	0.00991244	15.377107031573
2	1108805	0.009920636	15.377107031573
2	1109736	0.009928832	15.377107031573
2	1110642	0.009937028	15.377107031573
2	1111538	0.009945224	15.377107031573
2	1112469	0.00995342	15.377107031573
2	1113433	0.009962128	15.377107031573
2	1114322	0.009970324	15.377107031573
2	1115249	0.00997852	15.377107031573
2	1116159	0.009986716	15.377107031573
2	1117055	0.009994912	15.377107031573
2	1118138	0.010003108	15.657107031573
2	1119353	0.01001233	15.937107031573
2	1120479	0.010020526	16.217107031573
2	1121482	0.010028722	15.972107031573
2	1122385	0.010036918	7.6885535157863
2	1123276	0.010045114	7.6885535157863
2	1124262	0.010054334	7.6885535157863
2	1125149	0.01006253	7.6885535157863
2	1126029	0.010070726	6.8346404138161
2	1126944	0.010078922	7.6885535157863
2	1127883	0.010088142	7.6885535157863
2	1128772	0.010096338	7.6885535157863
2	1129685	0.010104534	6.8346404138161
2	1130575	0.01011273	7.6885535157863
2	1131612	0.010121952	7.6885535157863
2	1132510	0.010130148	7.6885535157863
2	1133405	0.010138344	6.8331581669252
2	1134298	0.01014654	7.6885535157863
2	1135281	0.01015576	7.6885535157863
2	1136188	0.010163956	7.6885535157863
2	1137078	0.010172152	6.8346404138161
2	1137962	0.010180348	7.6885535157863
2	1138857	0.010188544	7.6885535157863
2	1139754	0.01019674	7.6885535157863
2	1140672	0.010204936	7.6885535157863
2	1141569	0.010213132	7.6885535157863
2	1142460	0.010221328	7.6885535157863
2	1143361	0.010229524	7.6885535157863
2	1144238	0.01023772	7.6885535157863
2	1145134	0.010245916	7.6885535157863
2	1146054	0.010254112	7.6885535157863
2	1146950	0.010262308	7.6885535157863
2	1147845	0.010270504	7.6885535157863
2	1148758	0.0102787	7.6885535157863
2	1149620	0.010286896	7.6885535157863
2	1150517	0.010295092	7.6885535157863
2	1151436	0.010303288	7.6885535157863
2	1152332	0.010311484	7.6885535157863
2	1153229	0.01031968	7.6885535157863
2	1154142	0.010327876	7.6885535157863
2	1155021	0.010336072	7.6885535157863
2	1155899	0.010344268	7.6885535157863
2	1156817	0.010352464	7.6885535157863
2	1157715	0.01036066	7.6885535157863
2	1158611	0.010368856	7.6885535157863
2	1159528	0.010377052	7.6885535157863
2	1160419	0.010385248	7.6885535157863
2	1161281	0.010393444	7.6885535157863
2	1162199	0.01040164	7.6885535157863
2	1163096	0.010409836	7.6885535157863
2	1163992	0.010418032	7.6885535157863
2	1164911	0.010426228	7.6885535157863
2	1165802	0.010434424	7.6885535157863
2	1166681	0.01044262	7.6885535157863
2	1167581	0.010450816	7.6885535157863
2	1168477	0.010459012	7.6885535157863
2	1169375	0.010467208	7.6885535157863
2	1170293	0.010475404	7.6885535157863
2	1171188	0.0104836	7.6885535157863
2	1172075	0.010491796	7.6885535157863
2	1172938	0.010499992	7.6885535157863
2	1173857	0.010508188	7.6885535157863
2	1174754	0.010516384	7.6885535157863
2	1175650	0.01052458	7.6885535157863
2	1176569	0.010532776	7.6885535157863
2	1177459	0.010540972	7.6885535157863
2	1178337	0.010549168	7.6885535157863
2	1179239	0.010557364	7.6885535157863
2	1180135	0.01056556	7.6885535157863
2	1181033	0.010573756	7.6885535157863
2	1181950	0.010581952	7.6885535157863
2	1182876	0.01059066	7.6885535157863
2	1183794	0.010599368	7.6885535157863
2	1184732	0.010608076	7.2364934101269
2	1185780	0.010617296	7.2364934101269
2	1186837	0.01062703	7.2364934101269
2	1187705	0.010635226	6.8346404138161
2	1188708	0.010644958	6.4737399440502
2	1189635	0.010653666	5.7664151368397
2	1190733	0.010663912	6.4750703468336
2	1191729	0.010673644	5.4273700575951
2	1192936	0.010684914	6.1502424961336
2	1193933	0.010694646	4.8563027601252
2	1194964	0.010703868	5.591427206334
2	1195956	0.0107136	4.8563027601252
2	1196980	0.010723332	5.1248686251939
2	1197891	0.010731528	4.8563027601252
2	1198856	0.010741262	4.8563027601252
2	1199774	0.01074997	3.8442767578932
2	1200849	0.010760214	4.8553049580376
2	1201715	0.01076841	3.6182467050634
2	1202861	0.01077968	4.613582434746
2	1203715	0.010787876	3.8442767578932
2	1204598	0.010796584	4.1935704047505
2	1205473	0.01080478	3.8442767578932
2	1206526	0.010814514	3.6182467050634
2	1207824	0.01082732	3.8442767578932
2	1208761	0.01083654	3.2368699720251
2	1209604	0.010845248	3.6905777339949
2	1210668	0.01085498	3.4173202069081
2	1211621	0.010864714	3.6182467050634
2	1212671	0.010874958	3.2375351734168
2	1213739	0.010885204	3.2368699720251
2	1214852	0.01089596	3.075721623164
2	1215885	0.010906718	3.0751212480668
2	1217018	0.010917988	2.9293131561633
2	1218249	0.01092977	2.9287685729404
2	1219417	0.010941552	2.795713603167
2	1220677	0.010953846	2.6742227387279
2	1221951	0.010966652	2.6742227387279
2	1223251	0.010979458	2.5628511719288
2	1224523	0.010992776	2.4603851559966
2	1225887	0.011006094	2.4603851559966
2	1227325	0.01102095	2.3657975903058
2	1228740	0.01103478	2.3657975903058
2	1230100	0.011049636	2.1208732032642
2	1231590	0.011064492	2.278213471272
2	1233123	0.011079858	2.1208732032642
2	1234722	0.01109625	2.1208732032642
2	1236196	0.01111213	2.0504810821094
2	1237104	0.011120838	1.9221383789466
2	1237963	0.011129035	1.9841116062779
2	1238889	0.011138768	1.8091233525317
2	1240529	0.011156184	1.9221383789466
2	1241592	0.011166942	1.6184349860125
2	1242547	0.011176674	1.8091233525317
2	1243575	0.01118692	1.4643842864702
2	1244503	0.011197164	1.6187675867084
2	1245634	0.011207922	1.5375606240334
2	1246619	0.011218678	1.537860811582
2	1247738	0.011229948	1.4643842864702
2	1248830	0.011240706	1.4646565780816
2	1250011	0.011252488	1.3978568015835
2	1251181	0.011264268	1.4643842864702
2	1252275	0.01127605	1.337111369364
2	1253434	0.011288344	1.3373383831788
2	1254641	0.011300638	1.337111369364
2	1255922	0.011313444	1.2814255859644
2	1257203	0.011326252	1.2814255859644
2	1258447	0.01133957	1.2301925779983
2	1259692	0.011352888	1.2300004804689
2	1261059	0.011366718	1.1828987951529
2	1262378	0.01138055	1.1828987951529
2	1263681	0.011394892	1.139106735636
2	1265100	0.011409236	1.1389420296303
2	1266566	0.01142409	1.0984413717645
2	1267942	0.011438946	1.0982882148526
2	1269454	0.011454826	1.0605793829168
2	1270885	0.011470194	1.0604366016321
2	1272431	0.011486586	0.99205580313893
2	1273971	0.011502466	1.0251071156849
2	1275517	0.01151937	0.96106918947329
2	1277138	0.011536274	0.99205580313893
2	1278760	0.01155369	0.93195966362081
2	1280342	0.011571106	0.93195966362081
2	1282071	0.011589548	0.90456167626586
2	1283675	0.011606964	0.90456167626586
2	1285496	0.01162643	0.85423740124966
2	1287153	0.01164487	0.90456167626586
2	1289084	0.01166536	0.80930063463712
2	1290800	0.011684314	0.85433005172701
2	1292767	0.011705316	0.76885535157863
2	1294599	0.011725294	0.83116208472334
2	1296493	0.011746296	0.75011171097258
2	1298522	0.011767811	0.78855972338803
2	1300509	0.011789838	0.75011171097258
2	1302486	0.011811864	0.73226020980971
2	1304613	0.011834916	0.71517369501753
2	1306747	0.011857966	0.71523863406184
2	1308797	0.01188153	0.68340474378996
2	1311036	0.011905606	0.68346404138161
2	1313245	0.011930194	0.66855568468198
2	1315492	0.011955294	0.65433818548954
2	1317874	0.011980906	0.64071279298219
2	1320188	0.012007032	0.6276432730616
2	1322480	0.012033156	0.61509628899915
2	1324945	0.012060818	0.60299495345044
2	1327408	0.012087966	0.60304111751057
2	1329938	0.012116652	0.56951218833946
2	1332460	0.012144826	0.58029490768551
2	1335112	0.01217505	0.54918239398474
2	1337707	0.012204248	0.55916256668723
2	1340474	0.012235496	0.52123630736654
2	1343124	0.012265718	0.53955223487383
2	1345974	0.012298502	0.50415534286502
2	1348766	0.01232975	0.52127080119933
2	1351736	0.01236407	0.48053459473664
2	1354615	0.012396342	0.50415534286502
2	1357845	0.0124322	0.45902815133584
2	1360796	0.012465496	0.4881583463636
2	1364094	0.01250289	0.43933978899677
2	1367129	0.012537722	0.47314530735963
2	1370616	0.012576654	0.42129342017025
2	1373822	0.012612512	0.45228083813293
2	1377426	0.012653492	0.40465031731856
2	1380652	0.012690374	0.43933978899677
2	1384406	0.012733402	0.38442767578932
2	1387715	0.012771308	0.42714186198813
2	1391780	0.012816387	0.36613010490486
2	1395161	0.01285583	0.4156029692884
2	1399338	0.012902444	0.34947970526301
2	1402871	0.012943424	0.39939778303027
2	1407116	0.012992088	0.33796383390926
2	1410890	0.013034606	0.38442767578932
2	1415293	0.013085318	0.32372690600539
2	1419203	0.013129372	0.37052180614907
2	1423784	0.013182134	0.31065322120694
2	1427821	0.013228236	0.3576030815328
2	1432534	0.013283046	0.29858318778375
2	1436731	0.013330686	0.34171719564978
2	1441717	0.013388058	0.28742649432305
2	1446021	0.013437234	0.33068526771298
2	1451216	0.013497168	0.27459119699237
2	1455675	0.013548392	0.3203563964911
2	1460993	0.013609862	0.26285324112934
2	1465635	0.013663136	0.30754814449957
2	1471217	0.01372768	0.25628511719288
2	1475992	0.013783002	0.29571359676101
2	1481840	0.013850108	0.2440791731818
2	1486868	0.013907992	0.28476638866719
2	1492897	0.013977658	0.23476061982306
2	1498094	0.01403759	0.272162361859
2	1504289	0.014109818	0.22613392693489
2	1509794	0.014172824	0.26286201284533
2	1516222	0.014247614	0.21811272849651
2	1521925	0.014313182	0.25003723699086
2	1528614	0.014391044	0.21064107706707
2	1534613	0.014459172	0.24026729736832
2	1541534	0.01454062	0.20233035567859
2	1547625	0.014610798	0.23123893485566
2	1554827	0.01469532	0.19342213625683
2	1561163	0.014768572	0.22448411402215
2	1568770	0.014856678	0.18638752222908
2	1575310	0.014933004	0.21506370001974
2	1583220	0.015024696	0.1788055995488
2	1590023	0.015104096	0.20640209304622
2	1598151	0.015199374	0.17181265708945
2	1605105	0.015281334	0.19841116062779
2	1613551	0.01538071	0.16534610459756
2	1620715	0.015466256	0.19221383789466
2	1629604	0.015569218	0.15852767422563
2	1637218	0.01565835	0.18415643225687
2	1646336	0.01576541	0.1530064116261
2	1654301	0.015858128	0.17674736518698
2	1663800	0.015969286	0.14714969319864
2	1672145	0.016066102	0.16991141044723
2	1681987	0.016181358	0.14172480751584
2	1690656	0.01628227	0.16271944878787
2	1700899	0.016402138	0.13668569231837
2	1709877	0.016507148	0.15611469551536
2	1720494	0.016631626	0.13142662056467
2	1729843	0.016740734	0.15002234219452
2	1740855	0.016870334	0.12655928078734
2	1750596	0.016984054	0.14438763568067
2	1762074	0.017118776	0.12155745489079
2	1772188	0.017237106	0.13853188668525
2	1784117	0.01737695	0.11693595814972
2	1794598	0.01749989	0.13313484453517
2	1806963	0.017645368	0.11265300015622
2	1817952	0.017773432	0.12814255859644
2	1830819	0.017924544	0.10829023050802
2	1842150	0.01805773	0.12301541536924
2	1855588	0.01821499	0.10425278041351
2	1867313	0.018353298	0.11828455058224
2	1881020	0.018516706	0.10017707079897
2	1893111	0.018660648	0.11390408475176
2	1907398	0.018830716	0.096408047059178
2	1920079	0.018980804	0.10944579173449
2	1935145	0.01915753	0.092632630205836
2	1948430	0.019313768	0.1049640621092
2	1964038	0.019497152	0.089142775561299
2	1977828	0.019659536	0.10083235930981
2	1994085	0.019850606	0.085906328544727
2	2008476	0.020019648	0.097016000060635
2	2025370	0.0202184	0.082450652398839
2	2040302	0.020394102	0.093194863725264
2	2057823	0.02060054	0.079263837112815
2	2073386	0.020783412	0.089662304093557
2	2091578	0.020998046	0.076312724177943
2	2107631	0.021187578	0.08614684672255
2	2126714	0.021411432	0.073398651443136
2	2143377	0.021608648	0.08311971674359
2	2163182	0.02184121	0.070375540101344
2	2180523	0.022046622	0.079881176749585
2	2201088	0.022288404	0.067740413970667
2	2219127	0.022502012	0.076693893997654
2	2240283	0.022753526	0.06515723318463
2	2258775	0.022975844	0.073751199177213
2	2280684	0.02323709	0.062636060632196
2	2299914	0.023468628	0.070861766271045
2	2322902	0.02374012	0.060302726755036
2	2343265	0.023980878	0.068040002737547
2	2367235	0.024263128	0.058026925853602
2	2388379	0.024513618	0.065434362114016
2	2413347	0.024807138	0.055815221094229
2	2435346	0.025067872	0.062892116067892
2	2461237	0.025373174	0.053672138708933
2	2484093	0.025644154	0.060421142443433
2	2511069	0.02596175	0.051600861290939
2	2534870	0.026243486	0.058136564151768
2	2562853	0.026573888	0.049603414885093
2	2587618	0.026866896	0.055917050550324
2	2616770	0.027210616	0.047680843801933
2	2642420	0.027514892	0.053765925004936
2	2672718	0.027872442	0.045833370632626
2	2699454	0.028189012	0.051774856228707
2	2730841	0.028560394	0.044060540214924
2	2758803	0.028890796	0.04976417902469
2	2790930	0.02927652	0.042419519938624
2	2819535	0.029619728	0.047680843801933
3	158	0.000000002	32
3	207	0.000000514	32
3	257	0.000001026	32
3	314	0.000001538	32
3	372	0.00000205	32
3	430	0.000002562	32
3	481	0.000003074	32
3	532	0.000003586	32
3	638	0.000004098	32
3	700	0.00000461	32
3	761	0.000005122	32
3	813	0.000005634	32
3	865	0.000006146	32
3	917	0.000006658	32
3	969	0.00000717	32
3	1021	0.000007682	32
3	1129	0.000008194	32
3	1193	0.000008706	32
3	1255	0.000009218	32
3	1345	0.00000973	32
3	1437	0.000010242	32
3	1492	0.000010754	32
3	1544	0.000011266	32
3	1596	0.000011778	32
3	1704	0.00001229	32
3	1768	0.000012802	32
3	1829	0.000013314	32
3	1881	0.000013826	32
3	1933	0.000014338	32
3	1985	0.00001485	32
3	2037	0.000015362	32
3	2089	0.000015874	32
3	2197	0.000016386	32
3	2261	0.000016898	32
3	2323	0.00001741	32
3	2413	0.000017922	15.377107031573
3	2567	0.00001898748	15.377107031573
3	2652	0.00002005296	15.377107031573
3	2816	0.00002111844	15.377107031573
3	2922	0.00002218392	15.377107031573
3	3010	0.0000232494	15.377107031573
3	3100	0.00002431488	15.377107031573
3	3282	0.00002538036	15.377107031573
3	3427	0.00002644584	15.377107031573
3	3531	0.00002751132	15.377107031573
3	3615	0.0000285768	15.377107031573
3	3777	0.00002964228	15.377107031573
3	3861	0.00003070776	15.377107031573
3	3945	0.00003177324	15.377107031573
3	4098	0.00003283872	15.377107031573
3	4192	0.0000339042	15.377107031573
3	4365	0.00003496968	15.377107031573
3	4466	0.00003603516	15.377107031573
3	4627	0.00003710064	15.377107031573
3	4721	0.00003816612	15.377107031573
3	4805	0.0000392316	15.377107031573
3	4889	0.00004029708	15.377107031573
3	5042	0.00004136256	15.377107031573
3	5174	0.00004242804	15.377107031573
3	5301	0.00004349352	15.377107031573
3	5385	0.000044559	15.377107031573
3	5539	0.00004562448	15.377107031573
3	5632	0.00004668996	15.377107031573
3	5727	0.00004775544	15.377107031573
3	5824	0.00004882092	15.377107031573
3	5988	0.0000498864	15.377107031573
3	6144	0.00005095188	15.377107031573
3	6265	0.00005201736	15.377107031573
3	6349	0.00005308284	15.377107031573
3	6511	0.00005414832	15.377107031573
3	6595	0.0000552138	15.377107031573
3	6679	0.00005627928	15.377107031573
3	6787	0.00005734476	15.377107031573
3	6926	0.00005841024	15.377107031573
3	7088	0.00005947572	15.377107031573
3	7175	0.0000605412	15.377107031573
3	7336	0.00006160668	15.377107031573
3	7449	0.00006267216	15.377107031573
3	7538	0.00006373764	15.377107031573
3	7623	0.00006480312	15.377107031573
3	7776	0.0000658686	15.377107031573
3	7894	0.00006693408	15.377107031573
3	8034	0.00006799956	15.377107031573
3	8119	0.00006906504	15.377107031573
3	8272	0.00007013052	15.377107031573
3	8365	0.000071196	15.377107031573
3	8449	0.00007226148	15.377107031573
3	8533	0.00007332696	15.377107031573
3	8697	0.00007439244	15.377107031573
3	8861	0.00007545792	15.377107031573
3	8992	0.0000765234	15.377107031573
3	9082	0.00007758888	15.377107031573
3	9244	0.00007865436	15.377107031573
3	9328	0.00007971984	15.377107031573
3	9412	0.00008078532	15.377107031573
3	9496	0.0000818508	15.377107031573
3	9659	0.00008291628	15.377107031573
3	9821	0.00008398176	15.377107031573
3	9908	0.00008504724	15.377107031573
3	10061	0.00008611272	15.377107031573
3	10154	0.0000871782	15.377107031573
3	10249	0.00008824368	15.377107031573
3	10350	0.00008930916	15.377107031573
3	10508	0.00009037464	15.377107031573
3	10622	0.00009144012	15.377107031573
3	10766	0.0000925056	15.377107031573
3	10852	0.00009357108	15.377107031573
3	11005	0.00009463656	15.377107031573
3	11098	0.00009570204	15.377107031573
3	11182	0.00009676752	15.377107031573
3	11266	0.000097833	15.377107031573
3	11420	0.00009889848	15.377107031573
3	11552	0.00009996396	15.377107031573
3	11709	0.00010102944	15.377107031573
3	11809	0.00010209492	15.377107031573
3	11970	0.0001031604	15.377107031573
3	12062	0.00010422588	15.377107031573
3	12146	0.00010529136	15.377107031573
3	12230	0.00010635684	15.377107031573
3	12393	0.00010742232	15.377107031573
3	12554	0.0001084878	15.377107031573
3	12642	0.00010955328	15.377107031573
3	12791	0.00011061876	15.377107031573
3	12888	0.00011168424	15.377107031573
3	12972	0.00011274972	15.377107031573
3	13056	0.0001138152	15.377107031573
3	13217	0.00011488068	15.377107031573
3	13331	0.00011594616	15.377107031573
3	13499	0.00011701164	15.377107031573
3	13586	0.00011807712	15.377107031573
3	13739	0.0001191426	15.377107031573
3	13832	0.00012020808	15.377107031573
3	13916	0.00012127356	15.377107031573
3	14000	0.00012233904	15.377107031573
3	14153	0.00012340452	15.377107031573
3	14285	0.00012447	15.377107031573
3	14431	0.00012553548	15.377107031573
3	14515	0.00012660096	15.377107031573
3	14679	0.00012766644	15.377107031573
3	14788	0.00012873192	15.377107031573
3	14873	0.0001297974	15.377107031573
3	14963	0.00013086288	15.377107031573
3	15126	0.00013192836	15.377107031573
3	15271	0.00013299384	15.377107031573
3	15375	0.00013405932	15.377107031573
3	15459	0.0001351248	15.377107031573
3	15621	0.00013619028	15.377107031573
3	15705	0.00013725576	15.377107031573
3	15789	0.00013832124	15.377107031573
3	15942	0.00013938672	15.377107031573
3	16036	0.0001404522	15.377107031573
3	16212	0.00014151768	15.377107031573
3	16313	0.00014258316	15.377107031573
3	16471	0.00014364864	15.377107031573
3	16565	0.00014471412	15.377107031573
3	16649	0.0001457796	15.377107031573
3	16733	0.00014684508	15.377107031573
3	16886	0.00014791056	15.377107031573
3	17018	0.00014897604	15.377107031573
3	17164	0.00015004152	15.377107031573
3	17248	0.000151107	15.377107031573
3	17401	0.00015217248	15.377107031573
3	17494	0.00015323796	15.377107031573
3	17589	0.00015430344	15.377107031573
3	17689	0.00015536892	15.377107031573
3	17850	0.0001564344	15.377107031573
3	17987	0.00015749988	15.377107031573
3	18108	0.00015856536	15.377107031573
3	18192	0.00015963084	15.377107031573
3	18354	0.00016069632	15.377107031573
3	18438	0.0001617618	15.377107031573
3	18522	0.00016282728	15.377107031573
3	18675	0.00016389276	15.377107031573
3	18769	0.00016495824	15.377107031573
3	18931	0.00016602372	15.377107031573
3	19018	0.0001670892	15.377107031573
3	19182	0.00016815468	15.377107031573
3	19292	0.00016922016	15.377107031573
3	19381	0.00017028564	15.377107031573
3	19466	0.00017135112	15.377107031573
3	19619	0.0001724166	15.377107031573
3	19737	0.00017348208	15.377107031573
3	19877	0.00017454756	15.377107031573
3	19981	0.00017561304	15.377107031573
3	20134	0.00017667852	15.377107031573
3	20227	0.000177744	15.377107031573
3	20311	0.00017880948	15.377107031573
3	20395	0.00017987496	15.377107031573
3	20562	0.00018094044	15.377107031573
3	20707	0.00018200592	15.377107031573
3	20835	0.0001830714	15.377107031573
3	20925	0.00018413688	15.377107031573
3	21087	0.00018520236	15.377107031573
3	21171	0.00018626784	15.377107031573
3	21255	0.00018733332	15.377107031573
3	21339	0.0001883988	15.377107031573
3	21502	0.00018946428	15.377107031573
3	21664	0.00019052976	15.377107031573
3	21751	0.00019159524	15.377107031573
3	21904	0.00019266072	15.377107031573
3	21997	0.0001937262	15.377107031573
3	22095	0.00019479168	15.377107031573
3	22193	0.00019585716	15.377107031573
3	22351	0.00019692264	15.377107031573
3	22465	0.00019798812	15.377107031573
3	22609	0.0001990536	15.377107031573
3	22714	0.00020011908	15.377107031573
3	22867	0.00020118456	15.377107031573
3	22960	0.00020225004	15.377107031573
3	23044	0.00020331552	15.377107031573
3	23128	0.000204381	15.377107031573
3	23281	0.00020544648	15.377107031573
3	23413	0.00020651196	15.377107031573
3	23554	0.00020757744	15.377107031573
3	23651	0.00020864292	15.377107031573
3	23812	0.0002097084	15.377107031573
3	23904	0.00021077388	15.377107031573
3	23988	0.00021183936	15.377107031573
3	24072	0.00021290484	15.377107031573
3	24235	0.00021397032	15.377107031573
3	24396	0.0002150358	15.377107031573
3	24484	0.00021610128	15.377107031573
3	24637	0.00021716676	15.377107031573
3	24730	0.00021823224	15.377107031573
3	24814	0.00021929772	15.377107031573
3	24901	0.0002203632	15.377107031573
3	25062	0.00022142868	15.377107031573
3	25173	0.00022249416	15.377107031573
3	25341	0.00022355964	15.377107031573
3	25428	0.00022462512	15.377107031573
3	25600	0.0002256906	15.377107031573
3	25693	0.00022675608	15.377107031573
3	25777	0.00022782156	15.377107031573
3	25861	0.00022888704	15.377107031573
3	26015	0.00022995252	15.377107031573
3	26147	0.000231018	15.377107031573
3	26274	0.00023208348	15.377107031573
3	26358	0.00023314896	15.377107031573
3	26525	0.00023421444	15.377107031573
3	26631	0.00023527992	15.377107031573
3	26716	0.0002363454	15.377107031573
3	26806	0.00023741088	15.377107031573
3	26969	0.00023847636	15.377107031573
3	27114	0.00023954184	15.377107031573
3	27218	0.00024060732	15.377107031573
3	27367	0.0002416728	15.377107031573
3	27464	0.00024273828	15.377107031573
3	27548	0.00024380376	15.377107031573
3	27632	0.00024486924	15.377107031573
3	27785	0.00024593472	15.377107031573
3	27882	0.0002470002	15.377107031573
3	28055	0.00024806568	15.377107031573
3	28156	0.00024913116	15.377107031573
3	28333	0.00025019664	15.377107031573
3	28427	0.00025126212	15.377107031573
3	28511	0.0002523276	15.377107031573
3	28595	0.00025339308	15.377107031573
3	28748	0.00025445856	15.377107031573
3	28880	0.00025552404	15.377107031573
3	29007	0.00025658952	15.377107031573
3	29091	0.000257655	15.377107031573
3	29244	0.00025872048	15.377107031573
3	29337	0.00025978596	15.377107031573
3	29435	0.00026085144	15.377107031573
3	29532	0.00026191692	15.377107031573
3	29693	0.0002629824	15.377107031573
3	29830	0.00026404788	15.377107031573
3	29951	0.00026511336	15.377107031573
3	30035	0.00026617884	15.377107031573
3	30197	0.00026724432	15.377107031573
3	30281	0.0002683098	15.377107031573
3	30365	0.00026937528	15.377107031573
3	30518	0.00027044076	15.377107031573
3	30612	0.00027150624	15.377107031573
3	30774	0.00027257172	15.377107031573
3	30864	0.0002736372	15.377107031573
3	31025	0.00027470268	15.377107031573
3	31154	0.00027576816	15.377107031573
3	31243	0.00027683364	15.377107031573
3	31328	0.00027789912	15.377107031573
3	31481	0.0002789646	15.377107031573
3	31599	0.00028003008	15.377107031573
3	31739	0.00028109556	15.377107031573
3	31824	0.00028216104	15.377107031573
3	31977	0.00028322652	15.377107031573
3	32070	0.000284292	15.377107031573
3	32154	0.00028535748	15.377107031573
3	32241	0.00028642296	15.377107031573
3	32405	0.00028748844	15.377107031573
3	32550	0.00028855392	15.377107031573
3	32678	0.0002896194	15.377107031573
3	32768	0.00029068488	15.377107031573
3	32930	0.00029175036	15.377107031573
3	33014	0.00029281584	15.377107031573
3	33098	0.00029388132	15.377107031573
3	33247	0.0002949468	15.377107031573
3	33345	0.00029601228	15.377107031573
3	33507	0.00029707776	15.377107031573
3	33594	0.00029814324	15.377107031573
3	33747	0.00029920872	15.377107031573
3	33862	0.0003002742	15.377107031573
3	33957	0.00030133968	15.377107031573
3	34055	0.00030240516	15.377107031573
3	34213	0.00030347064	15.377107031573
3	34327	0.00030453612	15.377107031573
3	34471	0.0003056016	15.377107031573
3	34557	0.00030666708	15.377107031573
3	34710	0.00030773256	15.377107031573
3	34803	0.00030879804	15.377107031573
3	34887	0.00030986352	15.377107031573
3	34971	0.000310929	15.377107031573
3	35124	0.00031199448	15.377107031573
3	35259	0.00031305996	15.377107031573
3	35397	0.00031412544	15.377107031573
3	35494	0.00031519092	15.377107031573
3	35655	0.0003162564	15.377107031573
3	35747	0.00031732188	15.377107031573
3	35831	0.00031838736	15.377107031573
3	35915	0.00031945284	15.377107031573
3	36078	0.00032051832	15.377107031573
3	36239	0.0003215838	15.377107031573
3	36327	0.00032264928	15.377107031573
3	36480	0.00032371476	15.377107031573
3	36573	0.00032478024	15.377107031573
3	36679	0.00032584572	15.377107031573
3	36763	0.0003269112	15.377107031573
3	36924	0.00032797668	15.377107031573
3	37035	0.00032904216	15.377107031573
3	37203	0.00033010764	15.377107031573
3	37290	0.00033117312	15.377107031573
3	37443	0.0003322386	15.377107031573
3	37536	0.00033330408	15.377107031573
3	37620	0.00033436956	15.377107031573
3	37704	0.00033543504	15.377107031573
3	37857	0.00033650052	15.377107031573
3	37989	0.000337566	15.377107031573
3	38116	0.00033863148	15.377107031573
3	38203	0.00033969696	15.377107031573
3	38367	0.00034076244	15.377107031573
3	38473	0.00034182792	15.377107031573
3	38558	0.0003428934	15.377107031573
3	38648	0.00034395888	15.377107031573
3	38811	0.00034502436	15.377107031573
3	38956	0.00034608984	15.377107031573
3	39060	0.00034715532	15.377107031573
3	39213	0.0003482208	15.377107031573
3	39306	0.00034928628	15.377107031573
3	39409	0.00035035176	15.377107031573
3	39493	0.00035141724	15.377107031573
3	39649	0.00035248272	15.377107031573
3	39743	0.0003535482	15.377107031573
3	39916	0.00035461368	15.377107031573
3	40017	0.00035567916	15.377107031573
3	40175	0.00035674464	15.377107031573
3	40269	0.00035781012	15.377107031573
3	40353	0.0003588756	15.377107031573
3	40437	0.00035994108	15.377107031573
3	40591	0.00036100656	15.377107031573
3	40723	0.00036207204	15.377107031573
3	40850	0.00036313752	15.377107031573
3	40934	0.000364203	15.377107031573
3	41090	0.00036526848	15.377107031573
3	41183	0.00036633396	15.377107031573
3	41278	0.00036739944	15.377107031573
3	41375	0.00036846492	15.377107031573
3	41536	0.0003695304	15.377107031573
3	41673	0.00037059588	15.377107031573
3	41794	0.00037166136	15.377107031573
3	41878	0.00037272684	15.377107031573
3	42040	0.00037379232	15.377107031573
3	42124	0.0003748578	15.377107031573
3	42227	0.00037592328	15.377107031573
3	42380	0.00037698876	15.377107031573
3	42474	0.00037805424	15.377107031573
3	42639	0.00037911972	15.377107031573
3	42726	0.0003801852	15.377107031573
3	42887	0.00038125068	15.377107031573
3	42997	0.00038231616	15.377107031573
3	43086	0.00038338164	15.377107031573
3	43171	0.00038444712	15.377107031573
3	43324	0.0003855126	15.377107031573
3	43442	0.00038657808	15.377107031573
3	43582	0.00038764356	15.377107031573
3	43667	0.00038870904	15.377107031573
3	43820	0.00038977452	15.377107031573
3	43913	0.00039084	15.377107031573
3	44000	0.00039190548	15.377107031573
3	44084	0.00039297096	15.377107031573
3	44248	0.00039403644	15.377107031573
3	44393	0.00039510192	15.377107031573
3	44521	0.0003961674	15.377107031573
3	44611	0.00039723288	15.377107031573
3	44773	0.00039829836	15.377107031573
3	44857	0.00039936384	15.377107031573
3	44960	0.00040042932	15.377107031573
3	45113	0.0004014948	15.377107031573
3	45207	0.00040256028	15.377107031573
3	45369	0.00040362576	15.377107031573
3	45459	0.00040469124	15.377107031573
3	45612	0.00040575672	15.377107031573
3	45705	0.0004068222	15.377107031573
3	45800	0.00040788768	15.377107031573
3	45898	0.00040895316	15.377107031573
3	46056	0.00041001864	15.377107031573
3	46170	0.00041108412	15.377107031573
3	46314	0.0004121496	15.377107031573
3	46400	0.00041321508	15.377107031573
3	46554	0.00041428056	15.377107031573
3	46647	0.00041534604	15.377107031573
3	46731	0.00041641152	15.377107031573
3	46815	0.000417477	15.377107031573
3	46971	0.00041854248	15.377107031573
3	47103	0.00041960796	15.377107031573
3	47240	0.00042067344	15.377107031573
3	47337	0.00042173892	15.377107031573
3	47499	0.0004228044	15.377107031573
3	47590	0.00042386988	15.377107031573
3	47674	0.00042493536	15.377107031573
3	47842	0.00042600084	15.377107031573
3	47940	0.00042706632	15.377107031573
3	48101	0.0004281318	15.377107031573
3	48189	0.00042919728	15.377107031573
3	48342	0.00043026276	15.377107031573
3	48438	0.00043132824	15.377107031573
3	48522	0.00043239372	15.377107031573
3	48606	0.0004334592	15.377107031573
3	48767	0.00043452468	15.377107031573
3	48876	0.00043559016	15.377107031573
[...]
417	1013906	0.009071538	1
417	1013950	0.00907205	2
417	1014034	0.009072562	1
417	1014230	0.009073588	2
417	1014253	0.009073659111	1
417	1014276	0.0090741	2
417	1014323	0.009074612	1
417	1014384	0.009075124	2
417	1014427	0.009075636	1
417	1014469	0.009076148	2
417	1014512	0.00907666	1
417	1014668	0.009077686	2
417	1014691	0.009077757111	1
417	1014722	0.009078198	2
417	1014760	0.00907871	1
417	1014807	0.009079222	2
417	1014849	0.009079734	1
417	1014893	0.009080246	2
417	1014973	0.009080758	1
417	1015173	0.009081784	2
417	1015197	0.009081855111	1
417	1015220	0.009082296	2
417	1015265	0.009082808	1
417	1015304	0.00908332	2
417	1015349	0.009083832	1
417	1015387	0.009084344	2
417	1015428	0.009084856	1
417	1015581	0.009085882	2
417	1015604	0.009085953111	1
417	1015631	0.009086394	2
417	1015673	0.009086906	1
417	1015715	0.009087418	2
417	1015757	0.00908793	1
417	1015800	0.009088442	2
417	1015880	0.009088954	1
417	1016075	0.00908998	2
417	1016099	0.009090051111	1
417	1016126	0.009090492	2
417	1016167	0.009091004	1
417	1016210	0.009091516	2
417	1016251	0.009092028	1
417	1016293	0.00909254	2
417	1016330	0.009093052	1
417	1016484	0.009094078	2
417	1016512	0.009094149111	1
417	1016537	0.00909459	2
417	1016576	0.009095102	1
417	1016621	0.009095614	2
417	1016660	0.009096126	1
417	1016706	0.009096638	2
417	1016782	0.00909715	1
417	1016978	0.009098176	2
417	1017003	0.009098247111	1
417	1017028	0.009098688	2
417	1017070	0.0090992	1
417	1017112	0.009099712	2
417	1017173	0.009100224	1
417	1017215	0.009100736	2
417	1017257	0.009101248	1
417	1017411	0.009102274	2
417	1017434	0.009102345111	1
417	1017461	0.009102786	2
417	1017503	0.009103298	1
417	1017544	0.00910381	2
417	1017587	0.009104322	1
417	1017629	0.009104834	2
417	1017710	0.009105346	1
417	1017905	0.009106372	2
417	1017929	0.009106443111	1
417	1017950	0.009106884	2
417	1017996	0.009107396	1
417	1018034	0.009107908	2
417	1018079	0.00910842	1
417	1018118	0.009108932	2
417	1018163	0.009109444	1
417	1018316	0.00911047	2
417	1018339	0.009110541111	1
417	1018362	0.009110982	2
417	1018403	0.009111494	1
417	1018445	0.009112006	2
417	1018487	0.009112518	1
417	1018530	0.00911303	2
417	1018610	0.009113542	1
417	1018806	0.009114568	2
417	1018829	0.009114639111	1
417	1018856	0.00911508	2
417	1018898	0.009115592	1
417	1018940	0.009116104	2
417	1018981	0.009116616	1
417	1019024	0.009117128	2
417	1019065	0.00911764	1
417	1019219	0.009118666	2
417	1019242	0.009118737111	1
417	1019269	0.009119178	2
417	1019306	0.00911969	1
417	1019352	0.009120202	2
417	1019390	0.009120714	1
417	1019513	0.009121738	1
417	1019733	0.009122835111	1
417	1019801	0.009123788	1
417	1019884	0.009124812	1
417	1020233	0.009127886	1
417	1020728	0.009131984	1
417	1021139	0.009136082	1
417	1032909	0.009241094	1
417	1032956	0.009241606	1
417	1033003	0.009242118	2
417	1033045	0.00924263	1
417	1033130	0.009243654	1
417	1033174	0.009244166	2
417	1033363	0.009244878	1
417	1033410	0.009245192	2
417	1033462	0.009245704	1
417	1033500	0.009246216	2
417	1033547	0.009246728	1
417	1033589	0.00924724	2
417	1033632	0.009247752	1
417	1033674	0.009248264	2
417	1033832	0.00924929	1
417	1033856	0.009249361111	2
417	1033880	0.009249802	1
417	1033945	0.009250314	2
417	1033983	0.009250826	1
417	1034030	0.009251338	2
417	1034072	0.00925185	1
417	1034116	0.009252362	2
417	1034311	0.009253074	1
417	1034354	0.009253388	2
417	1034405	0.0092539	1
417	1034444	0.009254412	2
417	1034490	0.009254924	1
417	1034533	0.009255436	2
417	1034575	0.009255948	1
417	1034617	0.00925646	2
417	1034770	0.009257486	1
417	1034795	0.009257557111	2
417	1034817	0.009257998	1
417	1034864	0.00925851	2
417	1034906	0.009259022	1
417	1034949	0.009259534	2
417	1034991	0.009260046	1
417	1035034	0.009260558	2
417	1035228	0.00926127	1
417	1035270	0.009261584	2
417	1035318	0.009262096	1
417	1035360	0.009262608	2
417	1035402	0.00926312	1
417	1035444	0.009263632	2
417	1035486	0.009264144	1
417	1035528	0.009264656	2
417	1035681	0.009265682	1
417	1035704	0.009265753111	2
417	1035732	0.009266194	1
417	1035774	0.009266706	2
417	1035816	0.009267218	1
417	1035857	0.00926773	2
417	1035900	0.009268242	1
417	1035942	0.009268754	2
417	1036131	0.009269466	1
417	1036178	0.00926978	2
417	1036226	0.009270292	1
417	1036263	0.009270804	2
417	1036309	0.009271316	1
417	1036347	0.009271828	2
417	1036393	0.00927234	1
417	1036431	0.009272852	2
417	1036583	0.009273878	1
417	1036606	0.009273949111	2
417	1036637	0.00927439	1
417	1036676	0.009274902	2
417	1036740	0.009275414	1
417	1036778	0.009275926	2
417	1036819	0.009276438	1
417	1036862	0.00927695	2
417	1037056	0.009277662	1
417	1037098	0.009277976	2
417	1037146	0.009278488	1
417	1037188	0.009279	2
417	1037230	0.009279512	1
417	1037272	0.009280024	2
417	1037313	0.009280536	1
417	1037356	0.009281048	2
417	1037509	0.009282074	1
417	1037532	0.009282145111	2
417	1037559	0.009282586	1
417	1037601	0.009283098	2
417	1037638	0.00928361	1
417	1037684	0.009284122	2
417	1037722	0.009284634	1
417	1037769	0.009285146	2
417	1037963	0.009285858	1
417	1038005	0.009286172	2
417	1038050	0.009286684	1
417	1038095	0.009287196	2
417	1038134	0.009287708	1
417	1038179	0.00928822	2
417	1038217	0.009288732	1
417	1038258	0.009289244	2
417	1038411	0.00929027	1
417	1038439	0.009290341111	2
417	1038462	0.009290782	1
417	1038504	0.009291294	2
417	1038546	0.009291806	1
417	1038588	0.009292318	2
417	1038630	0.00929283	1
417	1038673	0.009293342	2
417	1038866	0.009294054	1
417	1038908	0.009294368	2
417	1038957	0.00929488	1
417	1038998	0.009295392	2
417	1039041	0.009295904	1
417	1039082	0.009296416	2
417	1039124	0.009296928	1
417	1039161	0.00929744	2
417	1039313	0.009298466	1
417	1039336	0.009298537111	2
417	1039368	0.009298978	1
417	1039406	0.00929949	2
417	1039470	0.009300002	1
417	1039509	0.009300514	2
417	1039554	0.009301026	1
417	1039594	0.009301538	2
417	1039790	0.00930225	1
417	1039829	0.009302564	2
417	1039876	0.009303076	1
417	1039918	0.009303588	2
417	1039960	0.0093041	1
417	1040002	0.009304612	2
417	1040044	0.009305124	1
417	1040086	0.009305636	2
417	1040239	0.009306662	1
417	1040262	0.009306733111	2
417	1040289	0.009307174	1
417	1040332	0.009307686	2
417	1040373	0.009308198	1
417	1040416	0.00930871	2
417	1040457	0.009309222	1
417	1040500	0.009309734	2
417	1040694	0.009310446	1
417	1040736	0.00931076	2
417	1040780	0.009311272	1
417	1040826	0.009311784	2
417	1040864	0.009312296	1
417	1040909	0.009312808	2
417	1040948	0.00931332	1
417	1040993	0.009313832	2
417	1041147	0.009314858	1
417	1041170	0.009314929111	2
417	1041194	0.00931537	1
417	1041235	0.009315882	2
417	1041277	0.009316394	1
417	1041319	0.009316906	2
417	1041361	0.009317418	1
417	1041598	0.009318642	1
417	1041688	0.009319468	1
417	1041772	0.009320492	1
417	1041856	0.009321516	1
417	1042050	0.009323054	1
417	1042101	0.009323566	1
417	1055459	0.00944292	2
417	1055878	0.009447018	2
417	1055967	0.009448042	2
417	1056057	0.009449066	2
417	1056231	0.009450092	1
417	1056254	0.009450163111	2
417	1056316	0.009450604	1
417	1056402	0.009451116	2
417	1056443	0.009451628	1
417	1056490	0.00945214	2
417	1056532	0.009452652	1
417	1056576	0.009453164	2
417	1056730	0.00945419	1
417	1056753	0.009454261111	2
417	1056785	0.009454702	1
417	1056823	0.009455214	2
417	1056869	0.009455726	1
417	1056907	0.009456238	2
417	1056955	0.00945675	1
417	1057001	0.009457262	2
417	1057156	0.009458288	1
417	1057179	0.009458359111	2
417	1057241	0.0094588	1
417	1057327	0.009459312	2
417	1057368	0.009459824	1
417	1057414	0.009460336	2
417	1057452	0.009460848	1
417	1057499	0.00946136	2
417	1057653	0.009462386	1
417	1057676	0.009462457111	2
417	1057704	0.009462898	1
417	1057746	0.00946341	2
417	1057788	0.009463922	1
417	1057830	0.009464434	2
417	1057873	0.009464946	1
417	1057919	0.009465458	2
417	1058074	0.009466484	1
417	1058097	0.009466555111	2
417	1058159	0.009466996	1
417	1058245	0.009467508	2
417	1058286	0.00946802	1
417	1058331	0.009468532	2
417	1058370	0.009469044	1
417	1058415	0.009469556	2
417	1058568	0.009470582	1
417	1058591	0.009470653111	2
417	1058615	0.009471094	1
417	1058656	0.009471606	2
417	1058698	0.009472118	1
417	1058740	0.00947263	2
417	1058782	0.009473142	1
417	1058824	0.009473654	2
417	1058978	0.00947468	1
417	1059001	0.009474751111	2
417	1059086	0.009475192	1
417	1059168	0.009475704	2
417	1059213	0.009476216	1
417	1059255	0.009476728	2
417	1059297	0.00947724	1
417	1059338	0.009477752	2
417	1059490	0.009478778	1
417	1059513	0.009478849111	2
417	1059542	0.00947929	1
417	1059583	0.009479802	2
417	1059625	0.009480314	1
417	1059662	0.009480826	2
417	1059707	0.009481338	1
417	1059746	0.00948185	2
417	1059900	0.009482876	1
417	1059923	0.009482947111	2
417	1059992	0.009483388	1
417	1060071	0.0094839	2
417	1060119	0.009484412	1
417	1060157	0.009484924	2
417	1060198	0.009485436	1
417	1060240	0.009485948	2
417	1060393	0.009486974	1
417	1060416	0.009487045111	2
417	1060444	0.009487486	1
417	1060486	0.009487998	2
417	1060528	0.00948851	1
417	1060570	0.009489022	2
417	1060612	0.009489534	1
417	1060654	0.009490046	2
417	1060809	0.009491072	1
417	1060832	0.009491143111	2
417	1060897	0.009491584	1
417	1060980	0.009492096	2
417	1061024	0.009492608	1
417	1061066	0.00949312	2
417	1061103	0.009493632	1
417	1061149	0.009494144	2
417	1061302	0.00949517	1
417	1061327	0.009495241111	2
417	1061350	0.009495682	1
417	1061395	0.009496194	2
417	1061434	0.009496706	1
417	1061479	0.009497218	2
417	1061517	0.00949773	1
417	1061558	0.009498242	2
417	1061712	0.009499268	1
417	1061743	0.009499339111	2
417	1061801	0.00949978	1
417	1061902	0.009500292	2
417	1061947	0.009500804	1
417	1061989	0.009501316	2
417	1062031	0.009501828	1
417	1062073	0.00950234	2
417	1062226	0.009503366	1
417	1062252	0.009503437111	2
417	1062277	0.009503878	1
417	1062318	0.00950439	2
417	1062361	0.009504902	1
417	1062402	0.009505414	2
417	1062445	0.009505926	1
417	1062486	0.009506438	2
417	1062634	0.009507464	1
417	1062665	0.009507535111	2
417	1062726	0.009507976	1
417	1062805	0.009508488	2
417	1062853	0.009509	1
417	1062892	0.009509512	2
417	1062937	0.009510024	1
417	1062976	0.009510536	2
417	1063128	0.009511562	1
417	1063155	0.009511633111	2
417	1063178	0.009512074	1
417	1063220	0.009512586	2
417	1063262	0.009513098	1
417	1063304	0.00951361	2
417	1063346	0.009514122	1
417	1063388	0.009514634	2
417	1063542	0.00951566	1
417	1063568	0.009515731111	2
417	1063631	0.009516172	1
417	1063713	0.009516684	2
417	1063757	0.009517196	1
417	1063800	0.009517708	2
417	1063841	0.00951822	1
417	1063884	0.009518732	2
417	1064037	0.009519758	1
417	1064064	0.009519829111	2
417	1064083	0.00952027	1
417	1064129	0.009520782	2
417	1064167	0.009521294	1
417	1064212	0.009521806	2
417	1064296	0.00952283	2
417	1064476	0.009523927111	2
417	1064616	0.00952488	2
417	1064680	0.009525392	1
417	1064722	0.009525904	2
417	1064806	0.009526928	2
417	1064985	0.009528025111	2
417	1065052	0.009528978	2
417	1065094	0.00952949	1
417	1065136	0.009530002	2
417	1065219	0.009531026	2
417	1065398	0.009532123111	2
417	1065543	0.009533076	2
417	1065588	0.009533588	1
417	1065625	0.0095341	2
417	1065709	0.009535124	2
417	1065888	0.009536221111	2
417	1065955	0.009537174	2
417	1066038	0.009538198	2
417	1066283	0.009540248	2
417	1066779	0.009544346	2
417	1067193	0.009548459821	2
417	1078798	0.009651918	1
417	1079214	0.009656016	1
417	1079337	0.00965704	1
417	1079469	0.009658064	1
417	1079650	0.009659161111	1
417	1079675	0.009659602	2
417	1079721	0.009660114	1
417	1079759	0.009660626	2
417	1079805	0.009661138	1
417	1079843	0.00966165	2
417	1079890	0.009662162	1
417	1080046	0.009663188	2
417	1080070	0.009663259111	1
417	1080100	0.0096637	2
417	1080140	0.009664212	1
417	1080187	0.009664724	2
417	1080263	0.009665236	1
417	1080349	0.009665748	2
417	1080390	0.00966626	1
417	1080547	0.009667286	2
417	1080576	0.009667357111	1
417	1080600	0.009667798	2
417	1080646	0.00966831	1
417	1080685	0.009668822	2
417	1080732	0.009669334	1
417	1080774	0.009669846	2
417	1080817	0.009670358	1
417	1080972	0.009671384	2
417	1080995	0.009671455111	1
417	1081027	0.009671896	2
417	1081066	0.009672408	1
417	1081113	0.00967292	2
417	1081194	0.009673432	1
417	1081277	0.009673944	2
417	1081322	0.009674456	1
417	1081493	0.009675482	2
417	1081516	0.009675553111	1
417	1081544	0.009675994	2
417	1081585	0.009676506	1
417	1081628	0.009677018	2
417	1081669	0.00967753	1
417	1081712	0.009678042	2
417	1081753	0.009678554	1
417	1081901	0.00967958	2
417	1081929	0.009679651111	1
417	1081956	0.009680092	2
417	1081994	0.009680604	1
417	1082040	0.009681116	2
417	1082117	0.009681628	1
417	1082202	0.00968214	2
417	1082244	0.009682652	1
417	1082396	0.009683678	2
417	1082420	0.009683749111	1
417	1082446	0.00968419	2
417	1082488	0.009684702	1
417	1082530	0.009685214	2
417	1082572	0.009685726	1
417	1082614	0.009686238	2
417	1082656	0.00968675	1
417	1082810	0.009687776	2
417	1082833	0.009687847111	1
417	1082861	0.009688288	2
417	1082903	0.0096888	1
417	1082945	0.009689312	2
417	1083026	0.009689824	1
417	1083107	0.009690336	2
417	1083153	0.009690848	1
417	1083306	0.009691874	2
417	1083330	0.009691945111	1
417	1083352	0.009692386	2
417	1083398	0.009692898	1
417	1083436	0.00969341	2
417	1083481	0.009693922	1
417	1083520	0.009694434	2
417	1083565	0.009694946	1
417	1083718	0.009695972	2
417	1083741	0.009696043111	1
417	1083765	0.009696484	2
417	1083806	0.009696996	1
417	1083849	0.009697508	2
417	1083929	0.00969802	1
417	1084011	0.009698532	2
417	1084056	0.009699044	1
417	1084228	0.00970007	2
417	1084251	0.009700141111	1
417	1084279	0.009700582	2
417	1084321	0.009701094	1
417	1084363	0.009701606	2
417	1084405	0.009702118	1
417	1084447	0.00970263	2
417	1084488	0.009703142	1
417	1084640	0.009704168	2
417	1084663	0.009704239111	1
417	1084692	0.00970468	2
417	1084733	0.009705192	1
417	1084776	0.009705704	2
417	1084851	0.009706216	1
417	1084937	0.009706728	2
417	1084978	0.00970724	1
417	1085131	0.009708266	2
417	1085154	0.009708337111	1
417	1085185	0.009708778	2
417	1085224	0.00970929	1
417	1085269	0.009709802	2
417	1085307	0.009710314	1
417	1085348	0.009710826	2
417	1085390	0.009711338	1
417	1085543	0.009712364	2
417	1085567	0.009712435111	1
417	1085594	0.009712876	2
417	1085636	0.009713388	1
417	1085679	0.0097139	2
417	1085759	0.009714412	1
417	1085841	0.009714924	2
417	1085886	0.009715436	1
417	1086040	0.009716462	2
417	1086063	0.009716533111	1
417	1086090	0.009716974	2
417	1086133	0.009717486	1
417	1086174	0.009717998	2
417	1086216	0.00971851	1
417	1086253	0.009719022	2
417	1086299	0.009719534	1
417	1086451	0.00972056	2
417	1086476	0.009720631111	1
417	1086499	0.009721072	2
417	1086544	0.009721584	1
417	1086584	0.009722096	2
417	1086667	0.009722608	1
417	1086745	0.00972312	2
417	1086789	0.009723632	1
417	1086942	0.009724658	2
417	1086970	0.009724729111	1
417	1087012	0.00972517	2
417	1087054	0.009725682	1
417	1087096	0.009726194	2
417	1087138	0.009726706	1
417	1087180	0.009727218	2
417	1087222	0.00972773	1
417	1087374	0.009728756	2
417	1087397	0.009728827111	1
417	1087425	0.009729268	2
417	1087466	0.00972978	1
417	1087510	0.009730292	2
417	1087589	0.009730804	1
417	1087672	0.009731316	2
417	1087716	0.009731828	1
417	1087864	0.009732854	2
417	1087892	0.009732925111	1
417	1087919	0.009733366	2
417	1087957	0.009733878	1
417	1088002	0.00973439	2
417	1088041	0.009734902	1
417	1088086	0.009735414	2
417	1088277	0.009736952	2
417	1088327	0.009737464	2
417	1088412	0.009738488	2
417	1088574	0.009739512	2
417	1088773	0.00974105	2
417	1088824	0.009741562	2
417	1088907	0.009742586	2
417	1088991	0.00974361	2
417	1089186	0.009745148	2
417	1089232	0.00974566	2
417	1089317	0.009746684	2
417	1089479	0.009747708	2
417	1089680	0.009749246	2
417	1089727	0.009749758	2
417	1102098	0.009860916	2
417	1102140	0.009861428	1
417	1102225	0.009862452	1
417	1102269	0.009862964	2
417	1102469	0.009863676	1
417	1102508	0.00986399	2
417	1102559	0.009864502	1
417	1102598	0.009865014	2
417	1102644	0.009865526	1
417	1102682	0.009866038	2
417	1102729	0.00986655	1
417	1102771	0.009867062	2
417	1102929	0.009868088	1
417	1102953	0.009868159111	2
417	1102977	0.0098686	1
417	1103023	0.009869112	2
417	1103061	0.009869624	1
417	1103107	0.009870136	2
417	1103145	0.009870648	1
417	1103194	0.00987116	2
417	1103410	0.009871925	1
417	1103436	0.009872186	2
417	1103487	0.009872698	1
417	1103526	0.00987321	2
417	1103572	0.009873722	1
417	1103610	0.009874234	2
417	1103655	0.009874746	1
417	1103713	0.009875258	2
417	1103871	0.009876284	1
417	1103894	0.009876355111	2
417	1103922	0.009876796	1
417	1103964	0.009877308	2
417	1104001	0.00987782	1
417	1104047	0.009878332	2
417	1104085	0.009878844	1
417	1104132	0.009879356	2
417	1104349	0.00988012	1
417	1104372	0.009880382	2
417	1104419	0.009880894	1
417	1104462	0.009881406	2
417	1104503	0.009881918	1
417	1104545	0.00988243	2
417	1104582	0.009882942	1
417	1104628	0.009883454	2
417	1104781	0.00988448	1
417	1104805	0.009884551111	2
417	1104828	0.009884992	1
417	1104874	0.009885504	2
417	1104912	0.009886016	1
417	1104958	0.009886528	2
417	1104996	0.00988704	1
417	1105043	0.009887552	2
417	1105252	0.009888316	1
417	1105280	0.009888578	2
417	1105324	0.00988909	1
417	1105369	0.009889602	2
417	1105408	0.009890114	1
417	1105453	0.009890626	2
417	1105491	0.009891138	1
417	1105532	0.00989165	2
417	1105683	0.009892676	1
417	1105712	0.009892747111	2
417	1105735	0.009893188	1
417	1105776	0.0098937	2
417	1105819	0.009894212	1
417	1105860	0.009894724	2
417	1105902	0.009895236	1
417	1105940	0.009895748	2
417	1106156	0.009896512	1
417	1106178	0.009896774	2
417	1106229	0.009897286	1
417	1106267	0.009897798	2
417	1106313	0.00989831	1
417	1106351	0.009898822	2
417	1106397	0.009899334	1
417	1106435	0.009899846	2
417	1106607	0.009900872	1
417	1106630	0.009900943111	2
417	1106661	0.009901384	1
417	1106700	0.009901896	2
417	1106745	0.009902408	1
417	1106784	0.00990292	2
417	1106829	0.009903432	1
417	1106868	0.009903944	2
417	1107082	0.009904708	1
417	1107106	0.00990497	2
417	1107153	0.009905482	1
417	1107195	0.009905994	2
417	1107236	0.009906506	1
417	1107279	0.009907018	2
417	1107320	0.00990753	1
417	1107363	0.009908042	2
417	1107516	0.009909068	1
417	1107540	0.009909139111	2
417	1107562	0.00990958	1
417	1107608	0.009910092	2
417	1107646	0.009910604	1
417	1107692	0.009911116	2
417	1107730	0.009911628	1
417	1107777	0.00991214	2
417	1107986	0.009912904	1
417	1108015	0.009913166	2
417	1108058	0.009913678	1
417	1108104	0.00991419	2
417	1108142	0.009914702	1
417	1108187	0.009915214	2
417	1108226	0.009915726	1
417	1108271	0.009916238	2
417	1108423	0.009917264	1
417	1108446	0.009917335111	2
417	1108470	0.009917776	1
417	1108511	0.009918288	2
417	1108553	0.0099188	1
417	1108594	0.009919312	2
417	1108637	0.009919824	1
417	1108679	0.009920336	2
417	1108889	0.0099211	1
417	1108916	0.009921362	2
417	1108963	0.009921874	1
417	1109000	0.009922386	2
417	1109046	0.009922898	1
417	1109084	0.00992341	2
417	1109130	0.009923922	1
417	1109340	0.00992546	1
417	1109395	0.009925972	1
417	1109479	0.009926996	1
417	1109562	0.00992802	1
417	1109816	0.009929296	1
417	1109891	0.00993007	1
417	1109970	0.009931094	1
417	1110054	0.009932118	1
417	1110250	0.009933656	1
417	1110300	0.009934168	1
417	1110384	0.009935192	1
417	1110463	0.009936216	1
417	1110720	0.009937492	1
417	1110791	0.009938266	1
417	1110875	0.00993929	1
417	1110959	0.009940314	1
417	1111156	0.009941852	1
417	1111204	0.009942364	1
417	1111288	0.009943388	1
417	1111371	0.009944412	1
