version 2
run General-0-20200106-09:46:05-29952
attr configname General
attr datetime 20200106-09:46:05
attr experiment General
attr inifile evaluation_fairness.ini
attr iterationvars ""
attr iterationvars2 $repetition=0
attr measurement ""
attr network ib_model.examples.evaluation_fairness.demo_network
attr processid 29952
attr repetition 0
attr replication #0
attr resultdir results
attr runnumber 0
attr seedset 0
param **.CCT_Timer 25us
param **.H_1.app.dstLid 5
param **.H_1.app.msg2msgGap 2ns
param **.H_1.app.msgLength 4194304*20B
param **.H_1.app.msgNum 1
param **.H_10.**.endTime 0.011
param **.H_10.**.startTime 0
param **.H_10.app.dstLid 0
param **.H_10.app.msg2msgGap 2ns
param **.H_10.app.msgLength 4194304*20B
param **.H_10.app.msgNum 200
param **.H_11.**.endTime 0.011
param **.H_11.**.startTime 0
param **.H_11.app.dstLid 0
param **.H_11.app.msg2msgGap 2ns
param **.H_11.app.msgLength 4194304*20B
param **.H_11.app.msgNum 200
param **.H_2.app.msg2msgGap 2ns
param **.H_2.app.msgLength 4194304*20B
param **.H_2.app.msgNum 1
param **.H_3.app.msg2msgGap 2ns
param **.H_3.app.msgLength 4194304B
param **.H_3.app.msgNum 1
param **.H_4.app.msg2msgGap 2ns
param **.H_4.app.msgLength 4194304*20B
param **.H_4.app.msgNum 1
param **.H_5.app.msg2msgGap 2ns
param **.H_5.app.msgLength 4194304*20B
param **.H_5.app.msgNum 1
param **.H_6.app.msg2msgGap 2ns
param **.H_6.app.msgLength 4194304*20B
param **.H_6.app.msgNum 200
param **.H_7.app.msg2msgGap 2ns
param **.H_7.app.msgLength 4194304*20B
param **.H_7.app.msgNum 200
param **.H_8.app.msg2msgGap 2ns
param **.H_8.app.msgLength 4194304*20B
param **.H_8.app.msgNum 200
param **.H_9.app.msg2msgGap 2ns
param **.H_9.app.msgLength 4194304*20B
param **.H_9.app.msgNum 200
param **.ISWDelay 50ns
param **.SW**.fdbsVecFile "\"3h_2s.fdbs\""
param **.SW_1**.fdbIndex 0
param **.SW_2**.fdbIndex 1
param **.VSWDelay 50ns
param **.app.dstSeqVecFile "\"\""
param **.app.dstSeqVecIdx 0
param **.dstMode "\"param\""
param **.flit2FlitGap 0.001ns
param **.flitSize 2048B
param **.genDlyPerByte 0.25ns
param **.ibuf.lossyMode false
param **.maxContPkts 10
param **.maxQueuedPerVL 10
param **.maxVL 0
param **.msgLenMode "\"param\""
param **.msgLenProb "\"1 1 1 1\""
param **.msgLenSet "\"4096 4096 4096\""
param **.msgMtuLen 2048B
param **.msgSQ 0
param **.obuf.credMinTime 4.096us
param **.obuf.width 4
param **.on_cc 0
param **.on_newcc 1
param **.on_throughput_gen 1
param **.on_throughput_obuf 1
param **.pkt2PktGap 0.001ns
param **.pktFwdType "\"Pktfwd\""
param **.pktfwd.ARAdaptThd 4
param **.pktfwd.AdaptMode "\"none\""
param **.pktfwd.GreedyRandSize 3
param **.pktfwd.LIDBindTime 2us
param **.pktfwd.OPSelAlgo "\"greedy\""
param **.pktfwd.OPSelOffsetByDLID 0
param **.pktfwd.TQBusy1Thd 20
param **.pktfwd.TQBusy2Thd 40
param **.pktfwd.TQBusy3Thd 80
param **.pktfwd.statRepTime 10us
param **.popDlyPerByte 0.25ns
param **.sink.hiccupDelay 10000us
param **.sink.hiccupDuration 0.001us
param **.sink.repFirstPackets 0
param **.speed 10Gbps
param **.startStatCol 100us
param **.timeStep_us 25us
param **.vlarb.highVLArbEntries "\"0:1 1:20 2:40 3:80\""
param **.vlarb.lowVLArbEntries "\"0:1 1:20 2:40 3:80\""
param **.vlarb.markrate 1
param **.vlarb.useFCFSRQArb false
param **.vlarb.vlHighLimit 16
param **.vlarb.width 4
param **.width 4
param **H_**.ibuf.maxStatic* 32
param **H_**.obuf.size 5
param **H_**.vlarb.busWidth 16B
param **H_**.vlarb.coreFreq 1000MHz
param **H_1.**.endTime 0.04
param **H_1.**.startTime 0
param **H_2**.dstLid 5
param **H_2.**.endTime 0.04
param **H_2.**.startTime 0
param **H_3**.dstLid 0
param **H_3.**.endTime 1
param **H_3.**.startTime 0
param **H_4**.dstLid 0
param **H_4.**.endTime 0.011
param **H_4.**.startTime 0
param **H_5**.dstLid 0
param **H_5.**.endTime 1
param **H_5.**.startTime 0
param **H_6**.dstLid 5
param **H_6.**.endTime 0.011
param **H_6.**.startTime 0.01
param **H_7**.dstLid 0
param **H_7.**.endTime 0.011
param **H_7.**.startTime 0.01
param **H_8**.dstLid 0
param **H_8.**.endTime 0.011
param **H_8.**.startTime 0.01
param **H_9**.dstLid 0
param **H_9.**.endTime 0.011
param **H_9.**.startTime 0
param **SW**.obuf.size 5
param **SW**.port[*].ibuf.maxStatic* 32
param **SW**.vlarb.busWidth 24B
param **SW**.vlarb.coreFreq 1200MHz
param **ibuf.maxBeingSent 1
param **ibuf.totalBufferSize 1000

scalar demo_network.H_5.sink 	"first receive packet for Rtt" 	1.226e-006
scalar demo_network.H_1.sink 	"first receive packet for Rtt" 	9.622e-006
scalar demo_network.H_2.sink 	"first receive packet for Rtt" 	1.0134e-005
scalar demo_network.H_6.sink 	"first receive packet for Rtt" 	0.010009668
scalar demo_network.H_1.gen 	"generate BECN" 	0
scalar demo_network.H_1.gen 	"first packet for RTT" 	2e-009
scalar demo_network.H_1.sink 	"Time last packet consumed:" 	0.029619728
statistic demo_network.H_1.sink 	"Waiting time statistics"
field count 1515
field mean 7.1200990099011e-007
field stddev 1.6019198263515e-010
field sum 0.001078695
field sqrsum 7.68041559e-010
field min 7.12e-007
field max 7.15e-007
statistic demo_network.H_1.sink 	"Packet Fabric Time"
field count 1515
field mean 7.1200990099011e-007
field stddev 1.6019198263515e-010
field sum 0.001078695
field sqrsum 7.68041559e-010
field min 7.12e-007
field max 7.15e-007
bin	-INF	0
bin	0	0
bin	3.56e-008	0
bin	7.12e-008	0
bin	1.068e-007	0
bin	1.424e-007	0
bin	1.78e-007	0
bin	2.136e-007	0
bin	2.492e-007	0
bin	2.848e-007	0
bin	3.204e-007	0
bin	3.56e-007	0
bin	3.916e-007	0
bin	4.272e-007	0
bin	4.628e-007	0
bin	4.984e-007	0
bin	5.34e-007	0
bin	5.696e-007	0
bin	6.052e-007	0
bin	6.408e-007	0
bin	6.764e-007	0
bin	7.12e-007	1515
bin	7.476e-007	0
bin	7.832e-007	0
bin	8.188e-007	0
bin	8.544e-007	0
bin	8.9e-007	0
bin	9.256e-007	0
bin	9.612e-007	0
bin	9.968e-007	0
bin	1.0324e-006	0
bin	1.068e-006	0
statistic demo_network.H_1.sink 	Msg-Network-Latency
field count 0
field mean nan
field stddev nan
field sum 0
field sqrsum 0
field min nan
field max nan
bin	-INF	0
bin	-0.5	0
bin	-0.46666666666667	0
bin	-0.43333333333333	0
bin	-0.4	0
bin	-0.36666666666667	0
bin	-0.33333333333333	0
bin	-0.3	0
bin	-0.26666666666667	0
bin	-0.23333333333333	0
bin	-0.2	0
bin	-0.16666666666667	0
bin	-0.13333333333333	0
bin	-0.1	0
bin	-0.066666666666667	0
bin	-0.033333333333333	0
bin	0	0
bin	0.033333333333333	0
bin	0.066666666666667	0
bin	0.1	0
bin	0.13333333333333	0
bin	0.16666666666667	0
bin	0.2	0
bin	0.23333333333333	0
bin	0.26666666666667	0
bin	0.3	0
bin	0.33333333333333	0
bin	0.36666666666667	0
bin	0.4	0
bin	0.43333333333333	0
bin	0.46666666666667	0
bin	0.5	0
statistic demo_network.H_1.sink 	Msg-First2First-Network-Latency
field count 0
field mean nan
field stddev nan
field sum 0
field sqrsum 0
field min nan
field max nan
bin	-INF	0
bin	-0.5	0
bin	-0.46666666666667	0
bin	-0.43333333333333	0
bin	-0.4	0
bin	-0.36666666666667	0
bin	-0.33333333333333	0
bin	-0.3	0
bin	-0.26666666666667	0
bin	-0.23333333333333	0
bin	-0.2	0
bin	-0.16666666666667	0
bin	-0.13333333333333	0
bin	-0.1	0
bin	-0.066666666666667	0
bin	-0.033333333333333	0
bin	0	0
bin	0.033333333333333	0
bin	0.066666666666667	0
bin	0.1	0
bin	0.13333333333333	0
bin	0.16666666666667	0
bin	0.2	0
bin	0.23333333333333	0
bin	0.26666666666667	0
bin	0.3	0
bin	0.33333333333333	0
bin	0.36666666666667	0
bin	0.4	0
bin	0.43333333333333	0
bin	0.46666666666667	0
bin	0.5	0
statistic demo_network.H_1.sink 	Enough-Pkts-Network-Latency
field count 0
field mean nan
field stddev nan
field sum 0
field sqrsum 0
field min nan
field max nan
bin	-INF	0
bin	-0.5	0
bin	-0.46666666666667	0
bin	-0.43333333333333	0
bin	-0.4	0
bin	-0.36666666666667	0
bin	-0.33333333333333	0
bin	-0.3	0
bin	-0.26666666666667	0
bin	-0.23333333333333	0
bin	-0.2	0
bin	-0.16666666666667	0
bin	-0.13333333333333	0
bin	-0.1	0
bin	-0.066666666666667	0
bin	-0.033333333333333	0
bin	0	0
bin	0.033333333333333	0
bin	0.066666666666667	0
bin	0.1	0
bin	0.13333333333333	0
bin	0.16666666666667	0
bin	0.2	0
bin	0.23333333333333	0
bin	0.26666666666667	0
bin	0.3	0
bin	0.33333333333333	0
bin	0.36666666666667	0
bin	0.4	0
bin	0.43333333333333	0
bin	0.46666666666667	0
bin	0.5	0
statistic demo_network.H_1.sink 	Last-to-Enough-Pkt-Arrival
field count 0
field mean nan
field stddev nan
field sum 0
field sqrsum 0
field min nan
field max nan
scalar demo_network.H_1.sink 	Sink-BW-MBps 	0
scalar demo_network.H_1.sink 	VL-0-total-flits 	1527
statistic demo_network.H_1.sink 	OOO-Window-Pkts
field count 0
field mean nan
field stddev nan
field sum 0
field sqrsum 0
field min nan
field max nan
scalar demo_network.H_1.sink 	OO-IO-Packets-Ratio 	nan
scalar demo_network.H_1.sink 	Num-SRCs 	0
scalar demo_network.H_1.sink 	Received-BECN 	1527
statistic demo_network.H_1.obuf 	"Flits Sources"
field count 10359
field mean 1
field stddev 0
field sum 10359
field sqrsum 10359
field min 1
field max 1
scalar demo_network.H_1.ibuf 	marknum 	0
scalar demo_network.H_1.ibuf 	Received-BECN-ibuf 	1527
scalar demo_network.H_1.ibuf 	Received-FECN-ibuf 	0
scalar demo_network.H_2.gen 	"generate BECN" 	0
scalar demo_network.H_2.gen 	"first packet for RTT" 	2e-009
scalar demo_network.H_2.sink 	"Time last packet consumed:" 	0.02993681
statistic demo_network.H_2.sink 	"Waiting time statistics"
field count 1525
field mean 7.1230032786886e-007
field stddev 7.1744746061048e-010
field sum 0.001086258
field sqrsum 7.73742714e-010
field min 7.12e-007
field max 7.15e-007
statistic demo_network.H_2.sink 	"Packet Fabric Time"
field count 1525
field mean 7.1230032786886e-007
field stddev 7.1744746061048e-010
field sum 0.001086258
field sqrsum 7.73742714e-010
field min 7.12e-007
field max 7.15e-007
bin	-INF	0
bin	0	0
bin	3.56e-008	0
bin	7.12e-008	0
bin	1.068e-007	0
bin	1.424e-007	0
bin	1.78e-007	0
bin	2.136e-007	0
bin	2.492e-007	0
bin	2.848e-007	0
bin	3.204e-007	0
bin	3.56e-007	0
bin	3.916e-007	0
bin	4.272e-007	0
bin	4.628e-007	0
bin	4.984e-007	0
bin	5.34e-007	0
bin	5.696e-007	0
bin	6.052e-007	0
bin	6.408e-007	0
bin	6.764e-007	0
bin	7.12e-007	1525
bin	7.476e-007	0
bin	7.832e-007	0
bin	8.188e-007	0
bin	8.544e-007	0
bin	8.9e-007	0
bin	9.256e-007	0
bin	9.612e-007	0
bin	9.968e-007	0
bin	1.0324e-006	0
bin	1.068e-006	0
statistic demo_network.H_2.sink 	Msg-Network-Latency
field count 0
field mean nan
field stddev nan
field sum 0
field sqrsum 0
field min nan
field max nan
bin	-INF	0
bin	-0.5	0
bin	-0.46666666666667	0
bin	-0.43333333333333	0
bin	-0.4	0
bin	-0.36666666666667	0
bin	-0.33333333333333	0
bin	-0.3	0
bin	-0.26666666666667	0
bin	-0.23333333333333	0
bin	-0.2	0
bin	-0.16666666666667	0
bin	-0.13333333333333	0
bin	-0.1	0
bin	-0.066666666666667	0
bin	-0.033333333333333	0
bin	0	0
bin	0.033333333333333	0
bin	0.066666666666667	0
bin	0.1	0
bin	0.13333333333333	0
bin	0.16666666666667	0
bin	0.2	0
bin	0.23333333333333	0
bin	0.26666666666667	0
bin	0.3	0
bin	0.33333333333333	0
bin	0.36666666666667	0
bin	0.4	0
bin	0.43333333333333	0
bin	0.46666666666667	0
bin	0.5	0
statistic demo_network.H_2.sink 	Msg-First2First-Network-Latency
field count 0
field mean nan
field stddev nan
field sum 0
field sqrsum 0
field min nan
field max nan
bin	-INF	0
bin	-0.5	0
bin	-0.46666666666667	0
bin	-0.43333333333333	0
bin	-0.4	0
bin	-0.36666666666667	0
bin	-0.33333333333333	0
bin	-0.3	0
bin	-0.26666666666667	0
bin	-0.23333333333333	0
bin	-0.2	0
bin	-0.16666666666667	0
bin	-0.13333333333333	0
bin	-0.1	0
bin	-0.066666666666667	0
bin	-0.033333333333333	0
bin	0	0
bin	0.033333333333333	0
bin	0.066666666666667	0
bin	0.1	0
bin	0.13333333333333	0
bin	0.16666666666667	0
bin	0.2	0
bin	0.23333333333333	0
bin	0.26666666666667	0
bin	0.3	0
bin	0.33333333333333	0
bin	0.36666666666667	0
bin	0.4	0
bin	0.43333333333333	0
bin	0.46666666666667	0
bin	0.5	0
statistic demo_network.H_2.sink 	Enough-Pkts-Network-Latency
field count 0
field mean nan
field stddev nan
field sum 0
field sqrsum 0
field min nan
field max nan
bin	-INF	0
bin	-0.5	0
bin	-0.46666666666667	0
bin	-0.43333333333333	0
bin	-0.4	0
bin	-0.36666666666667	0
bin	-0.33333333333333	0
bin	-0.3	0
bin	-0.26666666666667	0
bin	-0.23333333333333	0
bin	-0.2	0
bin	-0.16666666666667	0
bin	-0.13333333333333	0
bin	-0.1	0
bin	-0.066666666666667	0
bin	-0.033333333333333	0
bin	0	0
bin	0.033333333333333	0
bin	0.066666666666667	0
bin	0.1	0
bin	0.13333333333333	0
bin	0.16666666666667	0
bin	0.2	0
bin	0.23333333333333	0
bin	0.26666666666667	0
bin	0.3	0
bin	0.33333333333333	0
bin	0.36666666666667	0
bin	0.4	0
bin	0.43333333333333	0
bin	0.46666666666667	0
bin	0.5	0
statistic demo_network.H_2.sink 	Last-to-Enough-Pkt-Arrival
field count 0
field mean nan
field stddev nan
field sum 0
field sqrsum 0
field min nan
field max nan
scalar demo_network.H_2.sink 	Sink-BW-MBps 	0
scalar demo_network.H_2.sink 	VL-0-total-flits 	1536
statistic demo_network.H_2.sink 	OOO-Window-Pkts
field count 0
field mean nan
field stddev nan
field sum 0
field sqrsum 0
field min nan
field max nan
scalar demo_network.H_2.sink 	OO-IO-Packets-Ratio 	nan
scalar demo_network.H_2.sink 	Num-SRCs 	0
scalar demo_network.H_2.sink 	Received-BECN 	1536
statistic demo_network.H_2.obuf 	"Flits Sources"
field count 10397
field mean 2
field stddev 0
field sum 20794
field sqrsum 41588
field min 2
field max 2
scalar demo_network.H_2.ibuf 	marknum 	0
scalar demo_network.H_2.ibuf 	Received-BECN-ibuf 	1536
scalar demo_network.H_2.ibuf 	Received-FECN-ibuf 	0
scalar demo_network.H_3.gen 	"generate BECN" 	0
scalar demo_network.H_3.gen 	"first packet for RTT" 	0
scalar demo_network.H_3.sink 	"Time last packet consumed:" 	0
statistic demo_network.H_3.sink 	"Waiting time statistics"
field count 0
field mean nan
field stddev nan
field sum 0
field sqrsum 0
field min nan
field max nan
statistic demo_network.H_3.sink 	"Packet Fabric Time"
field count 0
field mean nan
field stddev nan
field sum 0
field sqrsum 0
field min nan
field max nan
bin	-INF	0
bin	0	0
bin	0.033333333333333	0
bin	0.066666666666667	0
bin	0.1	0
bin	0.13333333333333	0
bin	0.16666666666667	0
bin	0.2	0
bin	0.23333333333333	0
bin	0.26666666666667	0
bin	0.3	0
bin	0.33333333333333	0
bin	0.36666666666667	0
bin	0.4	0
bin	0.43333333333333	0
bin	0.46666666666667	0
bin	0.5	0
bin	0.53333333333333	0
bin	0.56666666666667	0
bin	0.6	0
bin	0.63333333333333	0
bin	0.66666666666667	0
bin	0.7	0
bin	0.73333333333333	0
bin	0.76666666666667	0
bin	0.8	0
bin	0.83333333333333	0
bin	0.86666666666667	0
bin	0.9	0
bin	0.93333333333333	0
bin	0.96666666666667	0
bin	1	0
statistic demo_network.H_3.sink 	Msg-Network-Latency
field count 0
field mean nan
field stddev nan
field sum 0
field sqrsum 0
field min nan
field max nan
bin	-INF	0
bin	-0.5	0
bin	-0.46666666666667	0
bin	-0.43333333333333	0
bin	-0.4	0
bin	-0.36666666666667	0
bin	-0.33333333333333	0
bin	-0.3	0
bin	-0.26666666666667	0
bin	-0.23333333333333	0
bin	-0.2	0
bin	-0.16666666666667	0
bin	-0.13333333333333	0
bin	-0.1	0
bin	-0.066666666666667	0
bin	-0.033333333333333	0
bin	0	0
bin	0.033333333333333	0
bin	0.066666666666667	0
bin	0.1	0
bin	0.13333333333333	0
bin	0.16666666666667	0
bin	0.2	0
bin	0.23333333333333	0
bin	0.26666666666667	0
bin	0.3	0
bin	0.33333333333333	0
bin	0.36666666666667	0
bin	0.4	0
bin	0.43333333333333	0
bin	0.46666666666667	0
bin	0.5	0
statistic demo_network.H_3.sink 	Msg-First2First-Network-Latency
field count 0
field mean nan
field stddev nan
field sum 0
field sqrsum 0
field min nan
field max nan
bin	-INF	0
bin	-0.5	0
bin	-0.46666666666667	0
bin	-0.43333333333333	0
bin	-0.4	0
bin	-0.36666666666667	0
bin	-0.33333333333333	0
bin	-0.3	0
bin	-0.26666666666667	0
bin	-0.23333333333333	0
bin	-0.2	0
bin	-0.16666666666667	0
bin	-0.13333333333333	0
bin	-0.1	0
bin	-0.066666666666667	0
bin	-0.033333333333333	0
bin	0	0
bin	0.033333333333333	0
bin	0.066666666666667	0
bin	0.1	0
bin	0.13333333333333	0
bin	0.16666666666667	0
bin	0.2	0
bin	0.23333333333333	0
bin	0.26666666666667	0
bin	0.3	0
bin	0.33333333333333	0
bin	0.36666666666667	0
bin	0.4	0
bin	0.43333333333333	0
bin	0.46666666666667	0
bin	0.5	0
statistic demo_network.H_3.sink 	Enough-Pkts-Network-Latency
field count 0
field mean nan
field stddev nan
field sum 0
field sqrsum 0
field min nan
field max nan
bin	-INF	0
bin	-0.5	0
bin	-0.46666666666667	0
bin	-0.43333333333333	0
bin	-0.4	0
bin	-0.36666666666667	0
bin	-0.33333333333333	0
bin	-0.3	0
bin	-0.26666666666667	0
bin	-0.23333333333333	0
bin	-0.2	0
bin	-0.16666666666667	0
bin	-0.13333333333333	0
bin	-0.1	0
bin	-0.066666666666667	0
bin	-0.033333333333333	0
bin	0	0
bin	0.033333333333333	0
bin	0.066666666666667	0
bin	0.1	0
bin	0.13333333333333	0
bin	0.16666666666667	0
bin	0.2	0
bin	0.23333333333333	0
bin	0.26666666666667	0
bin	0.3	0
bin	0.33333333333333	0
bin	0.36666666666667	0
bin	0.4	0
bin	0.43333333333333	0
bin	0.46666666666667	0
bin	0.5	0
statistic demo_network.H_3.sink 	Last-to-Enough-Pkt-Arrival
field count 0
field mean nan
field stddev nan
field sum 0
field sqrsum 0
field min nan
field max nan
scalar demo_network.H_3.sink 	Sink-BW-MBps 	0
scalar demo_network.H_3.sink 	VL-0-total-flits 	0
statistic demo_network.H_3.sink 	OOO-Window-Pkts
field count 0
field mean nan
field stddev nan
field sum 0
field sqrsum 0
field min nan
field max nan
scalar demo_network.H_3.sink 	OO-IO-Packets-Ratio 	nan
scalar demo_network.H_3.sink 	Num-SRCs 	0
scalar demo_network.H_3.sink 	Received-BECN 	0
statistic demo_network.H_3.obuf 	"Flits Sources"
field count 0
field mean nan
field stddev nan
field sum 0
field sqrsum 0
field min nan
field max nan
scalar demo_network.H_3.ibuf 	marknum 	0
scalar demo_network.H_3.ibuf 	Received-BECN-ibuf 	0
scalar demo_network.H_3.ibuf 	Received-FECN-ibuf 	0
scalar demo_network.H_4.gen 	"generate BECN" 	0
scalar demo_network.H_4.gen 	"first packet for RTT" 	0
scalar demo_network.H_4.sink 	"Time last packet consumed:" 	0
statistic demo_network.H_4.sink 	"Waiting time statistics"
field count 0
field mean nan
field stddev nan
field sum 0
field sqrsum 0
field min nan
field max nan
statistic demo_network.H_4.sink 	"Packet Fabric Time"
field count 0
field mean nan
field stddev nan
field sum 0
field sqrsum 0
field min nan
field max nan
bin	-INF	0
bin	0	0
bin	0.033333333333333	0
bin	0.066666666666667	0
bin	0.1	0
bin	0.13333333333333	0
bin	0.16666666666667	0
bin	0.2	0
bin	0.23333333333333	0
bin	0.26666666666667	0
bin	0.3	0
bin	0.33333333333333	0
bin	0.36666666666667	0
bin	0.4	0
bin	0.43333333333333	0
bin	0.46666666666667	0
bin	0.5	0
bin	0.53333333333333	0
bin	0.56666666666667	0
bin	0.6	0
bin	0.63333333333333	0
bin	0.66666666666667	0
bin	0.7	0
bin	0.73333333333333	0
bin	0.76666666666667	0
bin	0.8	0
bin	0.83333333333333	0
bin	0.86666666666667	0
bin	0.9	0
bin	0.93333333333333	0
bin	0.96666666666667	0
bin	1	0
statistic demo_network.H_4.sink 	Msg-Network-Latency
field count 0
field mean nan
field stddev nan
field sum 0
field sqrsum 0
field min nan
field max nan
bin	-INF	0
bin	-0.5	0
bin	-0.46666666666667	0
bin	-0.43333333333333	0
bin	-0.4	0
bin	-0.36666666666667	0
bin	-0.33333333333333	0
bin	-0.3	0
bin	-0.26666666666667	0
bin	-0.23333333333333	0
bin	-0.2	0
bin	-0.16666666666667	0
bin	-0.13333333333333	0
bin	-0.1	0
bin	-0.066666666666667	0
bin	-0.033333333333333	0
bin	0	0
bin	0.033333333333333	0
bin	0.066666666666667	0
bin	0.1	0
bin	0.13333333333333	0
bin	0.16666666666667	0
bin	0.2	0
bin	0.23333333333333	0
bin	0.26666666666667	0
bin	0.3	0
bin	0.33333333333333	0
bin	0.36666666666667	0
bin	0.4	0
bin	0.43333333333333	0
bin	0.46666666666667	0
bin	0.5	0
statistic demo_network.H_4.sink 	Msg-First2First-Network-Latency
field count 0
field mean nan
field stddev nan
field sum 0
field sqrsum 0
field min nan
field max nan
bin	-INF	0
bin	-0.5	0
bin	-0.46666666666667	0
bin	-0.43333333333333	0
bin	-0.4	0
bin	-0.36666666666667	0
bin	-0.33333333333333	0
bin	-0.3	0
bin	-0.26666666666667	0
bin	-0.23333333333333	0
bin	-0.2	0
bin	-0.16666666666667	0
bin	-0.13333333333333	0
bin	-0.1	0
bin	-0.066666666666667	0
bin	-0.033333333333333	0
bin	0	0
bin	0.033333333333333	0
bin	0.066666666666667	0
bin	0.1	0
bin	0.13333333333333	0
bin	0.16666666666667	0
bin	0.2	0
bin	0.23333333333333	0
bin	0.26666666666667	0
bin	0.3	0
bin	0.33333333333333	0
bin	0.36666666666667	0
bin	0.4	0
bin	0.43333333333333	0
bin	0.46666666666667	0
bin	0.5	0
statistic demo_network.H_4.sink 	Enough-Pkts-Network-Latency
field count 0
field mean nan
field stddev nan
field sum 0
field sqrsum 0
field min nan
field max nan
bin	-INF	0
bin	-0.5	0
bin	-0.46666666666667	0
bin	-0.43333333333333	0
bin	-0.4	0
bin	-0.36666666666667	0
bin	-0.33333333333333	0
bin	-0.3	0
bin	-0.26666666666667	0
bin	-0.23333333333333	0
bin	-0.2	0
bin	-0.16666666666667	0
bin	-0.13333333333333	0
bin	-0.1	0
bin	-0.066666666666667	0
bin	-0.033333333333333	0
bin	0	0
bin	0.033333333333333	0
bin	0.066666666666667	0
bin	0.1	0
bin	0.13333333333333	0
bin	0.16666666666667	0
bin	0.2	0
bin	0.23333333333333	0
bin	0.26666666666667	0
bin	0.3	0
bin	0.33333333333333	0
bin	0.36666666666667	0
bin	0.4	0
bin	0.43333333333333	0
bin	0.46666666666667	0
bin	0.5	0
statistic demo_network.H_4.sink 	Last-to-Enough-Pkt-Arrival
field count 0
field mean nan
field stddev nan
field sum 0
field sqrsum 0
field min nan
field max nan
scalar demo_network.H_4.sink 	Sink-BW-MBps 	0
scalar demo_network.H_4.sink 	VL-0-total-flits 	0
statistic demo_network.H_4.sink 	OOO-Window-Pkts
field count 0
field mean nan
field stddev nan
field sum 0
field sqrsum 0
field min nan
field max nan
scalar demo_network.H_4.sink 	OO-IO-Packets-Ratio 	nan
scalar demo_network.H_4.sink 	Num-SRCs 	0
scalar demo_network.H_4.sink 	Received-BECN 	0
statistic demo_network.H_4.obuf 	"Flits Sources"
field count 0
field mean nan
field stddev nan
field sum 0
field sqrsum 0
field min nan
field max nan
scalar demo_network.H_4.ibuf 	marknum 	0
scalar demo_network.H_4.ibuf 	Received-BECN-ibuf 	0
scalar demo_network.H_4.ibuf 	Received-FECN-ibuf 	0
scalar demo_network.H_5.gen 	"generate BECN" 	5500
scalar demo_network.H_5.gen 	"first packet for RTT" 	8.91e-006
scalar demo_network.H_5.sink 	"Time last packet consumed:" 	0.029999818
statistic demo_network.H_5.sink 	"Waiting time statistics"
field count 58371
field mean 1.1822406496172e-005
field stddev 6.0909975442022e-006
field sum 0.69008568958806
field sqrsum 1.0324015195244e-005
field min 1.096e-006
field max 3.4505e-005
statistic demo_network.H_5.sink 	"Packet Fabric Time"
field count 58371
field mean 1.1822406496172e-005
field stddev 6.0909975442022e-006
field sum 0.69008568958806
field sqrsum 1.0324015195244e-005
field min 1.096e-006
field max 3.4505e-005
bin	-INF	0
bin	0	0
bin	8.8396e-007	274
bin	1.76792e-006	4799
bin	2.65188e-006	4503
bin	3.53584e-006	3318
bin	4.4198e-006	3072
bin	5.30376e-006	2634
bin	6.18772e-006	979
bin	7.07168e-006	111
bin	7.95564e-006	69
bin	8.8396e-006	65
bin	9.72356e-006	69
bin	1.060752e-005	67
bin	1.149148e-005	68
bin	1.237544e-005	68
bin	1.32594e-005	66
bin	1.414336e-005	2076
bin	1.502732e-005	27361
bin	1.591128e-005	6686
bin	1.679524e-005	526
bin	1.76792e-005	75
bin	1.856316e-005	231
bin	1.944712e-005	148
bin	2.033108e-005	123
bin	2.121504e-005	56
bin	2.2099e-005	100
bin	2.298296e-005	79
bin	2.386692e-005	45
bin	2.475088e-005	40
bin	2.563484e-005	26
bin	2.65188e-005	637
statistic demo_network.H_5.sink 	Msg-Network-Latency
field count 0
field mean nan
field stddev nan
field sum 0
field sqrsum 0
field min nan
field max nan
bin	-INF	0
bin	-0.5	0
bin	-0.46666666666667	0
bin	-0.43333333333333	0
bin	-0.4	0
bin	-0.36666666666667	0
bin	-0.33333333333333	0
bin	-0.3	0
bin	-0.26666666666667	0
bin	-0.23333333333333	0
bin	-0.2	0
bin	-0.16666666666667	0
bin	-0.13333333333333	0
bin	-0.1	0
bin	-0.066666666666667	0
bin	-0.033333333333333	0
bin	0	0
bin	0.033333333333333	0
bin	0.066666666666667	0
bin	0.1	0
bin	0.13333333333333	0
bin	0.16666666666667	0
bin	0.2	0
bin	0.23333333333333	0
bin	0.26666666666667	0
bin	0.3	0
bin	0.33333333333333	0
bin	0.36666666666667	0
bin	0.4	0
bin	0.43333333333333	0
bin	0.46666666666667	0
bin	0.5	0
statistic demo_network.H_5.sink 	Msg-First2First-Network-Latency
field count 0
field mean nan
field stddev nan
field sum 0
field sqrsum 0
field min nan
field max nan
bin	-INF	0
bin	-0.5	0
bin	-0.46666666666667	0
bin	-0.43333333333333	0
bin	-0.4	0
bin	-0.36666666666667	0
bin	-0.33333333333333	0
bin	-0.3	0
bin	-0.26666666666667	0
bin	-0.23333333333333	0
bin	-0.2	0
bin	-0.16666666666667	0
bin	-0.13333333333333	0
bin	-0.1	0
bin	-0.066666666666667	0
bin	-0.033333333333333	0
bin	0	0
bin	0.033333333333333	0
bin	0.066666666666667	0
bin	0.1	0
bin	0.13333333333333	0
bin	0.16666666666667	0
bin	0.2	0
bin	0.23333333333333	0
bin	0.26666666666667	0
bin	0.3	0
bin	0.33333333333333	0
bin	0.36666666666667	0
bin	0.4	0
bin	0.43333333333333	0
bin	0.46666666666667	0
bin	0.5	0
statistic demo_network.H_5.sink 	Enough-Pkts-Network-Latency
field count 0
field mean nan
field stddev nan
field sum 0
field sqrsum 0
field min nan
field max nan
bin	-INF	0
bin	-0.5	0
bin	-0.46666666666667	0
bin	-0.43333333333333	0
bin	-0.4	0
bin	-0.36666666666667	0
bin	-0.33333333333333	0
bin	-0.3	0
bin	-0.26666666666667	0
bin	-0.23333333333333	0
bin	-0.2	0
bin	-0.16666666666667	0
bin	-0.13333333333333	0
bin	-0.1	0
bin	-0.066666666666667	0
bin	-0.033333333333333	0
bin	0	0
bin	0.033333333333333	0
bin	0.066666666666667	0
bin	0.1	0
bin	0.13333333333333	0
bin	0.16666666666667	0
bin	0.2	0
bin	0.23333333333333	0
bin	0.26666666666667	0
bin	0.3	0
bin	0.33333333333333	0
bin	0.36666666666667	0
bin	0.4	0
bin	0.43333333333333	0
bin	0.46666666666667	0
bin	0.5	0
statistic demo_network.H_5.sink 	Last-to-Enough-Pkt-Arrival
field count 0
field mean nan
field stddev nan
field sum 0
field sqrsum 0
field min nan
field max nan
scalar demo_network.H_5.sink 	Sink-BW-MBps 	3998.052173913
scalar demo_network.H_5.sink 	VL-0-total-flits 	58564
statistic demo_network.H_5.sink 	OOO-Window-Pkts
field count 0
field mean nan
field stddev nan
field sum 0
field sqrsum 0
field min nan
field max nan
scalar demo_network.H_5.sink 	OO-IO-Packets-Ratio 	0
scalar demo_network.H_5.sink 	Num-SRCs 	3
scalar demo_network.H_5.sink 	Received-BECN 	0
statistic demo_network.H_5.obuf 	"Flits Sources"
field count 5500
field mean 5
field stddev 0
field sum 27500
field sqrsum 137500
field min 5
field max 5
scalar demo_network.H_5.ibuf 	marknum 	0
scalar demo_network.H_5.ibuf 	Received-BECN-ibuf 	0
scalar demo_network.H_5.ibuf 	Received-FECN-ibuf 	46763
scalar demo_network.H_6.gen 	"generate BECN" 	0
scalar demo_network.H_6.gen 	"first packet for RTT" 	0.010000002
scalar demo_network.H_6.sink 	"Time last packet consumed:" 	0.029995106
statistic demo_network.H_6.sink 	"Waiting time statistics"
field count 2437
field mean 6.12014772261e-007
field stddev 1.8061668817652e-010
field sum 0.0014914800000001
field sqrsum 9.1280787200001e-010
field min 6.12e-007
field max 6.15e-007
statistic demo_network.H_6.sink 	"Packet Fabric Time"
field count 2437
field mean 6.12014772261e-007
field stddev 1.8061668817652e-010
field sum 0.0014914800000001
field sqrsum 9.1280787200001e-010
field min 6.12e-007
field max 6.15e-007
bin	-INF	0
bin	0	0
bin	3.06e-008	0
bin	6.12e-008	0
bin	9.18e-008	0
bin	1.224e-007	0
bin	1.53e-007	0
bin	1.836e-007	0
bin	2.142e-007	0
bin	2.448e-007	0
bin	2.754e-007	0
bin	3.06e-007	0
bin	3.366e-007	0
bin	3.672e-007	0
bin	3.978e-007	0
bin	4.284e-007	0
bin	4.59e-007	0
bin	4.896e-007	0
bin	5.202e-007	0
bin	5.508e-007	0
bin	5.814e-007	0
bin	6.12e-007	2437
bin	6.426e-007	0
bin	6.732e-007	0
bin	7.038e-007	0
bin	7.344e-007	0
bin	7.65e-007	0
bin	7.956e-007	0
bin	8.262e-007	0
bin	8.568e-007	0
bin	8.874e-007	0
bin	9.18e-007	0
statistic demo_network.H_6.sink 	Msg-Network-Latency
field count 0
field mean nan
field stddev nan
field sum 0
field sqrsum 0
field min nan
field max nan
bin	-INF	0
bin	-0.5	0
bin	-0.46666666666667	0
bin	-0.43333333333333	0
bin	-0.4	0
bin	-0.36666666666667	0
bin	-0.33333333333333	0
bin	-0.3	0
bin	-0.26666666666667	0
bin	-0.23333333333333	0
bin	-0.2	0
bin	-0.16666666666667	0
bin	-0.13333333333333	0
bin	-0.1	0
bin	-0.066666666666667	0
bin	-0.033333333333333	0
bin	0	0
bin	0.033333333333333	0
bin	0.066666666666667	0
bin	0.1	0
bin	0.13333333333333	0
bin	0.16666666666667	0
bin	0.2	0
bin	0.23333333333333	0
bin	0.26666666666667	0
bin	0.3	0
bin	0.33333333333333	0
bin	0.36666666666667	0
bin	0.4	0
bin	0.43333333333333	0
bin	0.46666666666667	0
bin	0.5	0
statistic demo_network.H_6.sink 	Msg-First2First-Network-Latency
field count 0
field mean nan
field stddev nan
field sum 0
field sqrsum 0
field min nan
field max nan
bin	-INF	0
bin	-0.5	0
bin	-0.46666666666667	0
bin	-0.43333333333333	0
bin	-0.4	0
bin	-0.36666666666667	0
bin	-0.33333333333333	0
bin	-0.3	0
bin	-0.26666666666667	0
bin	-0.23333333333333	0
bin	-0.2	0
bin	-0.16666666666667	0
bin	-0.13333333333333	0
bin	-0.1	0
bin	-0.066666666666667	0
bin	-0.033333333333333	0
bin	0	0
bin	0.033333333333333	0
bin	0.066666666666667	0
bin	0.1	0
bin	0.13333333333333	0
bin	0.16666666666667	0
bin	0.2	0
bin	0.23333333333333	0
bin	0.26666666666667	0
bin	0.3	0
bin	0.33333333333333	0
bin	0.36666666666667	0
bin	0.4	0
bin	0.43333333333333	0
bin	0.46666666666667	0
bin	0.5	0
statistic demo_network.H_6.sink 	Enough-Pkts-Network-Latency
field count 0
field mean nan
field stddev nan
field sum 0
field sqrsum 0
field min nan
field max nan
bin	-INF	0
bin	-0.5	0
bin	-0.46666666666667	0
bin	-0.43333333333333	0
bin	-0.4	0
bin	-0.36666666666667	0
bin	-0.33333333333333	0
bin	-0.3	0
bin	-0.26666666666667	0
bin	-0.23333333333333	0
bin	-0.2	0
bin	-0.16666666666667	0
bin	-0.13333333333333	0
bin	-0.1	0
bin	-0.066666666666667	0
bin	-0.033333333333333	0
bin	0	0
bin	0.033333333333333	0
bin	0.066666666666667	0
bin	0.1	0
bin	0.13333333333333	0
bin	0.16666666666667	0
bin	0.2	0
bin	0.23333333333333	0
bin	0.26666666666667	0
bin	0.3	0
bin	0.33333333333333	0
bin	0.36666666666667	0
bin	0.4	0
bin	0.43333333333333	0
bin	0.46666666666667	0
bin	0.5	0
statistic demo_network.H_6.sink 	Last-to-Enough-Pkt-Arrival
field count 0
field mean nan
field stddev nan
field sum 0
field sqrsum 0
field min nan
field max nan
scalar demo_network.H_6.sink 	Sink-BW-MBps 	0
scalar demo_network.H_6.sink 	VL-0-total-flits 	2437
statistic demo_network.H_6.sink 	OOO-Window-Pkts
field count 0
field mean nan
field stddev nan
field sum 0
field sqrsum 0
field min nan
field max nan
scalar demo_network.H_6.sink 	OO-IO-Packets-Ratio 	nan
scalar demo_network.H_6.sink 	Num-SRCs 	0
scalar demo_network.H_6.sink 	Received-BECN 	2437
statistic demo_network.H_6.obuf 	"Flits Sources"
field count 37837
field mean 6
field stddev 0
field sum 227022
field sqrsum 1362132
field min 6
field max 6
scalar demo_network.H_6.ibuf 	marknum 	0
scalar demo_network.H_6.ibuf 	Received-BECN-ibuf 	2437
scalar demo_network.H_6.ibuf 	Received-FECN-ibuf 	0
scalar demo_network.H_7.gen 	"generate BECN" 	0
scalar demo_network.H_7.gen 	"first packet for RTT" 	0
scalar demo_network.H_7.sink 	"Time last packet consumed:" 	0
statistic demo_network.H_7.sink 	"Waiting time statistics"
field count 0
field mean nan
field stddev nan
field sum 0
field sqrsum 0
field min nan
field max nan
statistic demo_network.H_7.sink 	"Packet Fabric Time"
field count 0
field mean nan
field stddev nan
field sum 0
field sqrsum 0
field min nan
field max nan
bin	-INF	0
bin	0	0
bin	0.033333333333333	0
bin	0.066666666666667	0
bin	0.1	0
bin	0.13333333333333	0
bin	0.16666666666667	0
bin	0.2	0
bin	0.23333333333333	0
bin	0.26666666666667	0
bin	0.3	0
bin	0.33333333333333	0
bin	0.36666666666667	0
bin	0.4	0
bin	0.43333333333333	0
bin	0.46666666666667	0
bin	0.5	0
bin	0.53333333333333	0
bin	0.56666666666667	0
bin	0.6	0
bin	0.63333333333333	0
bin	0.66666666666667	0
bin	0.7	0
bin	0.73333333333333	0
bin	0.76666666666667	0
bin	0.8	0
bin	0.83333333333333	0
bin	0.86666666666667	0
bin	0.9	0
bin	0.93333333333333	0
bin	0.96666666666667	0
bin	1	0
statistic demo_network.H_7.sink 	Msg-Network-Latency
field count 0
field mean nan
field stddev nan
field sum 0
field sqrsum 0
field min nan
field max nan
bin	-INF	0
bin	-0.5	0
bin	-0.46666666666667	0
bin	-0.43333333333333	0
bin	-0.4	0
bin	-0.36666666666667	0
bin	-0.33333333333333	0
bin	-0.3	0
bin	-0.26666666666667	0
bin	-0.23333333333333	0
bin	-0.2	0
bin	-0.16666666666667	0
bin	-0.13333333333333	0
bin	-0.1	0
bin	-0.066666666666667	0
bin	-0.033333333333333	0
bin	0	0
bin	0.033333333333333	0
bin	0.066666666666667	0
bin	0.1	0
bin	0.13333333333333	0
bin	0.16666666666667	0
bin	0.2	0
bin	0.23333333333333	0
bin	0.26666666666667	0
bin	0.3	0
bin	0.33333333333333	0
bin	0.36666666666667	0
bin	0.4	0
bin	0.43333333333333	0
bin	0.46666666666667	0
bin	0.5	0
statistic demo_network.H_7.sink 	Msg-First2First-Network-Latency
field count 0
field mean nan
field stddev nan
field sum 0
field sqrsum 0
field min nan
field max nan
bin	-INF	0
bin	-0.5	0
bin	-0.46666666666667	0
bin	-0.43333333333333	0
bin	-0.4	0
bin	-0.36666666666667	0
bin	-0.33333333333333	0
bin	-0.3	0
bin	-0.26666666666667	0
bin	-0.23333333333333	0
bin	-0.2	0
bin	-0.16666666666667	0
bin	-0.13333333333333	0
bin	-0.1	0
bin	-0.066666666666667	0
bin	-0.033333333333333	0
bin	0	0
bin	0.033333333333333	0
bin	0.066666666666667	0
bin	0.1	0
bin	0.13333333333333	0
bin	0.16666666666667	0
bin	0.2	0
bin	0.23333333333333	0
bin	0.26666666666667	0
bin	0.3	0
bin	0.33333333333333	0
bin	0.36666666666667	0
bin	0.4	0
bin	0.43333333333333	0
bin	0.46666666666667	0
bin	0.5	0
statistic demo_network.H_7.sink 	Enough-Pkts-Network-Latency
field count 0
field mean nan
field stddev nan
field sum 0
field sqrsum 0
field min nan
field max nan
bin	-INF	0
bin	-0.5	0
bin	-0.46666666666667	0
bin	-0.43333333333333	0
bin	-0.4	0
bin	-0.36666666666667	0
bin	-0.33333333333333	0
bin	-0.3	0
bin	-0.26666666666667	0
bin	-0.23333333333333	0
bin	-0.2	0
bin	-0.16666666666667	0
bin	-0.13333333333333	0
bin	-0.1	0
bin	-0.066666666666667	0
bin	-0.033333333333333	0
bin	0	0
bin	0.033333333333333	0
bin	0.066666666666667	0
bin	0.1	0
bin	0.13333333333333	0
bin	0.16666666666667	0
bin	0.2	0
bin	0.23333333333333	0
bin	0.26666666666667	0
bin	0.3	0
bin	0.33333333333333	0
bin	0.36666666666667	0
bin	0.4	0
bin	0.43333333333333	0
bin	0.46666666666667	0
bin	0.5	0
statistic demo_network.H_7.sink 	Last-to-Enough-Pkt-Arrival
field count 0
field mean nan
field stddev nan
field sum 0
field sqrsum 0
field min nan
field max nan
scalar demo_network.H_7.sink 	Sink-BW-MBps 	0
scalar demo_network.H_7.sink 	VL-0-total-flits 	0
statistic demo_network.H_7.sink 	OOO-Window-Pkts
field count 0
field mean nan
field stddev nan
field sum 0
field sqrsum 0
field min nan
field max nan
scalar demo_network.H_7.sink 	OO-IO-Packets-Ratio 	nan
scalar demo_network.H_7.sink 	Num-SRCs 	0
scalar demo_network.H_7.sink 	Received-BECN 	0
statistic demo_network.H_7.obuf 	"Flits Sources"
field count 0
field mean nan
field stddev nan
field sum 0
field sqrsum 0
field min nan
field max nan
scalar demo_network.H_7.ibuf 	marknum 	0
scalar demo_network.H_7.ibuf 	Received-BECN-ibuf 	0
scalar demo_network.H_7.ibuf 	Received-FECN-ibuf 	0
scalar demo_network.H_8.gen 	"generate BECN" 	0
scalar demo_network.H_8.gen 	"first packet for RTT" 	0
scalar demo_network.H_8.sink 	"Time last packet consumed:" 	0
statistic demo_network.H_8.sink 	"Waiting time statistics"
field count 0
field mean nan
field stddev nan
field sum 0
field sqrsum 0
field min nan
field max nan
statistic demo_network.H_8.sink 	"Packet Fabric Time"
field count 0
field mean nan
field stddev nan
field sum 0
field sqrsum 0
field min nan
field max nan
bin	-INF	0
bin	0	0
bin	0.033333333333333	0
bin	0.066666666666667	0
bin	0.1	0
bin	0.13333333333333	0
bin	0.16666666666667	0
bin	0.2	0
bin	0.23333333333333	0
bin	0.26666666666667	0
bin	0.3	0
bin	0.33333333333333	0
bin	0.36666666666667	0
bin	0.4	0
bin	0.43333333333333	0
bin	0.46666666666667	0
bin	0.5	0
bin	0.53333333333333	0
bin	0.56666666666667	0
bin	0.6	0
bin	0.63333333333333	0
bin	0.66666666666667	0
bin	0.7	0
bin	0.73333333333333	0
bin	0.76666666666667	0
bin	0.8	0
bin	0.83333333333333	0
bin	0.86666666666667	0
bin	0.9	0
bin	0.93333333333333	0
bin	0.96666666666667	0
bin	1	0
statistic demo_network.H_8.sink 	Msg-Network-Latency
field count 0
field mean nan
field stddev nan
field sum 0
field sqrsum 0
field min nan
field max nan
bin	-INF	0
bin	-0.5	0
bin	-0.46666666666667	0
bin	-0.43333333333333	0
bin	-0.4	0
bin	-0.36666666666667	0
bin	-0.33333333333333	0
bin	-0.3	0
bin	-0.26666666666667	0
bin	-0.23333333333333	0
bin	-0.2	0
bin	-0.16666666666667	0
bin	-0.13333333333333	0
bin	-0.1	0
bin	-0.066666666666667	0
bin	-0.033333333333333	0
bin	0	0
bin	0.033333333333333	0
bin	0.066666666666667	0
bin	0.1	0
bin	0.13333333333333	0
bin	0.16666666666667	0
bin	0.2	0
bin	0.23333333333333	0
bin	0.26666666666667	0
bin	0.3	0
bin	0.33333333333333	0
bin	0.36666666666667	0
bin	0.4	0
bin	0.43333333333333	0
bin	0.46666666666667	0
bin	0.5	0
statistic demo_network.H_8.sink 	Msg-First2First-Network-Latency
field count 0
field mean nan
field stddev nan
field sum 0
field sqrsum 0
field min nan
field max nan
bin	-INF	0
bin	-0.5	0
bin	-0.46666666666667	0
bin	-0.43333333333333	0
bin	-0.4	0
bin	-0.36666666666667	0
bin	-0.33333333333333	0
bin	-0.3	0
bin	-0.26666666666667	0
bin	-0.23333333333333	0
bin	-0.2	0
bin	-0.16666666666667	0
bin	-0.13333333333333	0
bin	-0.1	0
bin	-0.066666666666667	0
bin	-0.033333333333333	0
bin	0	0
bin	0.033333333333333	0
bin	0.066666666666667	0
bin	0.1	0
bin	0.13333333333333	0
bin	0.16666666666667	0
bin	0.2	0
bin	0.23333333333333	0
bin	0.26666666666667	0
bin	0.3	0
bin	0.33333333333333	0
bin	0.36666666666667	0
bin	0.4	0
bin	0.43333333333333	0
bin	0.46666666666667	0
bin	0.5	0
statistic demo_network.H_8.sink 	Enough-Pkts-Network-Latency
field count 0
field mean nan
field stddev nan
field sum 0
field sqrsum 0
field min nan
field max nan
bin	-INF	0
bin	-0.5	0
bin	-0.46666666666667	0
bin	-0.43333333333333	0
bin	-0.4	0
bin	-0.36666666666667	0
bin	-0.33333333333333	0
bin	-0.3	0
bin	-0.26666666666667	0
bin	-0.23333333333333	0
bin	-0.2	0
bin	-0.16666666666667	0
bin	-0.13333333333333	0
bin	-0.1	0
bin	-0.066666666666667	0
bin	-0.033333333333333	0
bin	0	0
bin	0.033333333333333	0
bin	0.066666666666667	0
bin	0.1	0
bin	0.13333333333333	0
bin	0.16666666666667	0
bin	0.2	0
bin	0.23333333333333	0
bin	0.26666666666667	0
bin	0.3	0
bin	0.33333333333333	0
bin	0.36666666666667	0
bin	0.4	0
bin	0.43333333333333	0
bin	0.46666666666667	0
bin	0.5	0
statistic demo_network.H_8.sink 	Last-to-Enough-Pkt-Arrival
field count 0
field mean nan
field stddev nan
field sum 0
field sqrsum 0
field min nan
field max nan
scalar demo_network.H_8.sink 	Sink-BW-MBps 	0
scalar demo_network.H_8.sink 	VL-0-total-flits 	0
statistic demo_network.H_8.sink 	OOO-Window-Pkts
field count 0
field mean nan
field stddev nan
field sum 0
field sqrsum 0
field min nan
field max nan
scalar demo_network.H_8.sink 	OO-IO-Packets-Ratio 	nan
scalar demo_network.H_8.sink 	Num-SRCs 	0
scalar demo_network.H_8.sink 	Received-BECN 	0
statistic demo_network.H_8.obuf 	"Flits Sources"
field count 0
field mean nan
field stddev nan
field sum 0
field sqrsum 0
field min nan
field max nan
scalar demo_network.H_8.ibuf 	marknum 	0
scalar demo_network.H_8.ibuf 	Received-BECN-ibuf 	0
scalar demo_network.H_8.ibuf 	Received-FECN-ibuf 	0
scalar demo_network.H_9.gen 	"generate BECN" 	0
scalar demo_network.H_9.gen 	"first packet for RTT" 	0
scalar demo_network.H_9.sink 	"Time last packet consumed:" 	0
statistic demo_network.H_9.sink 	"Waiting time statistics"
field count 0
field mean nan
field stddev nan
field sum 0
field sqrsum 0
field min nan
field max nan
statistic demo_network.H_9.sink 	"Packet Fabric Time"
field count 0
field mean nan
field stddev nan
field sum 0
field sqrsum 0
field min nan
field max nan
bin	-INF	0
bin	0	0
bin	0.033333333333333	0
bin	0.066666666666667	0
bin	0.1	0
bin	0.13333333333333	0
bin	0.16666666666667	0
bin	0.2	0
bin	0.23333333333333	0
bin	0.26666666666667	0
bin	0.3	0
bin	0.33333333333333	0
bin	0.36666666666667	0
bin	0.4	0
bin	0.43333333333333	0
bin	0.46666666666667	0
bin	0.5	0
bin	0.53333333333333	0
bin	0.56666666666667	0
bin	0.6	0
bin	0.63333333333333	0
bin	0.66666666666667	0
bin	0.7	0
bin	0.73333333333333	0
bin	0.76666666666667	0
bin	0.8	0
bin	0.83333333333333	0
bin	0.86666666666667	0
bin	0.9	0
bin	0.93333333333333	0
bin	0.96666666666667	0
bin	1	0
statistic demo_network.H_9.sink 	Msg-Network-Latency
field count 0
field mean nan
field stddev nan
field sum 0
field sqrsum 0
field min nan
field max nan
bin	-INF	0
bin	-0.5	0
bin	-0.46666666666667	0
bin	-0.43333333333333	0
bin	-0.4	0
bin	-0.36666666666667	0
bin	-0.33333333333333	0
bin	-0.3	0
bin	-0.26666666666667	0
bin	-0.23333333333333	0
bin	-0.2	0
bin	-0.16666666666667	0
bin	-0.13333333333333	0
bin	-0.1	0
bin	-0.066666666666667	0
bin	-0.033333333333333	0
bin	0	0
bin	0.033333333333333	0
bin	0.066666666666667	0
bin	0.1	0
bin	0.13333333333333	0
bin	0.16666666666667	0
bin	0.2	0
bin	0.23333333333333	0
bin	0.26666666666667	0
bin	0.3	0
bin	0.33333333333333	0
bin	0.36666666666667	0
bin	0.4	0
bin	0.43333333333333	0
bin	0.46666666666667	0
bin	0.5	0
statistic demo_network.H_9.sink 	Msg-First2First-Network-Latency
field count 0
field mean nan
field stddev nan
field sum 0
field sqrsum 0
field min nan
field max nan
bin	-INF	0
bin	-0.5	0
bin	-0.46666666666667	0
bin	-0.43333333333333	0
bin	-0.4	0
bin	-0.36666666666667	0
bin	-0.33333333333333	0
bin	-0.3	0
bin	-0.26666666666667	0
bin	-0.23333333333333	0
bin	-0.2	0
bin	-0.16666666666667	0
bin	-0.13333333333333	0
bin	-0.1	0
bin	-0.066666666666667	0
bin	-0.033333333333333	0
bin	0	0
bin	0.033333333333333	0
bin	0.066666666666667	0
bin	0.1	0
bin	0.13333333333333	0
bin	0.16666666666667	0
bin	0.2	0
bin	0.23333333333333	0
bin	0.26666666666667	0
bin	0.3	0
bin	0.33333333333333	0
bin	0.36666666666667	0
bin	0.4	0
bin	0.43333333333333	0
bin	0.46666666666667	0
bin	0.5	0
statistic demo_network.H_9.sink 	Enough-Pkts-Network-Latency
field count 0
field mean nan
field stddev nan
field sum 0
field sqrsum 0
field min nan
field max nan
bin	-INF	0
bin	-0.5	0
bin	-0.46666666666667	0
bin	-0.43333333333333	0
bin	-0.4	0
bin	-0.36666666666667	0
bin	-0.33333333333333	0
bin	-0.3	0
bin	-0.26666666666667	0
bin	-0.23333333333333	0
bin	-0.2	0
bin	-0.16666666666667	0
bin	-0.13333333333333	0
bin	-0.1	0
bin	-0.066666666666667	0
bin	-0.033333333333333	0
bin	0	0
bin	0.033333333333333	0
bin	0.066666666666667	0
bin	0.1	0
bin	0.13333333333333	0
bin	0.16666666666667	0
bin	0.2	0
bin	0.23333333333333	0
bin	0.26666666666667	0
bin	0.3	0
bin	0.33333333333333	0
bin	0.36666666666667	0
bin	0.4	0
bin	0.43333333333333	0
bin	0.46666666666667	0
bin	0.5	0
statistic demo_network.H_9.sink 	Last-to-Enough-Pkt-Arrival
field count 0
field mean nan
field stddev nan
field sum 0
field sqrsum 0
field min nan
field max nan
scalar demo_network.H_9.sink 	Sink-BW-MBps 	0
scalar demo_network.H_9.sink 	VL-0-total-flits 	0
statistic demo_network.H_9.sink 	OOO-Window-Pkts
field count 0
field mean nan
field stddev nan
field sum 0
field sqrsum 0
field min nan
field max nan
scalar demo_network.H_9.sink 	OO-IO-Packets-Ratio 	nan
scalar demo_network.H_9.sink 	Num-SRCs 	0
scalar demo_network.H_9.sink 	Received-BECN 	0
statistic demo_network.H_9.obuf 	"Flits Sources"
field count 0
field mean nan
field stddev nan
field sum 0
field sqrsum 0
field min nan
field max nan
scalar demo_network.H_9.ibuf 	marknum 	0
scalar demo_network.H_9.ibuf 	Received-BECN-ibuf 	0
scalar demo_network.H_9.ibuf 	Received-FECN-ibuf 	0
scalar demo_network.H_10.gen 	"generate BECN" 	0
scalar demo_network.H_10.gen 	"first packet for RTT" 	0
scalar demo_network.H_10.sink 	"Time last packet consumed:" 	0
statistic demo_network.H_10.sink 	"Waiting time statistics"
field count 0
field mean nan
field stddev nan
field sum 0
field sqrsum 0
field min nan
field max nan
statistic demo_network.H_10.sink 	"Packet Fabric Time"
field count 0
field mean nan
field stddev nan
field sum 0
field sqrsum 0
field min nan
field max nan
bin	-INF	0
bin	0	0
bin	0.033333333333333	0
bin	0.066666666666667	0
bin	0.1	0
bin	0.13333333333333	0
bin	0.16666666666667	0
bin	0.2	0
bin	0.23333333333333	0
bin	0.26666666666667	0
bin	0.3	0
bin	0.33333333333333	0
bin	0.36666666666667	0
bin	0.4	0
bin	0.43333333333333	0
bin	0.46666666666667	0
bin	0.5	0
bin	0.53333333333333	0
bin	0.56666666666667	0
bin	0.6	0
bin	0.63333333333333	0
bin	0.66666666666667	0
bin	0.7	0
bin	0.73333333333333	0
bin	0.76666666666667	0
bin	0.8	0
bin	0.83333333333333	0
bin	0.86666666666667	0
bin	0.9	0
bin	0.93333333333333	0
bin	0.96666666666667	0
bin	1	0
statistic demo_network.H_10.sink 	Msg-Network-Latency
field count 0
field mean nan
field stddev nan
field sum 0
field sqrsum 0
field min nan
field max nan
bin	-INF	0
bin	-0.5	0
bin	-0.46666666666667	0
bin	-0.43333333333333	0
bin	-0.4	0
bin	-0.36666666666667	0
bin	-0.33333333333333	0
bin	-0.3	0
bin	-0.26666666666667	0
bin	-0.23333333333333	0
bin	-0.2	0
bin	-0.16666666666667	0
bin	-0.13333333333333	0
bin	-0.1	0
bin	-0.066666666666667	0
bin	-0.033333333333333	0
bin	0	0
bin	0.033333333333333	0
bin	0.066666666666667	0
bin	0.1	0
bin	0.13333333333333	0
bin	0.16666666666667	0
bin	0.2	0
bin	0.23333333333333	0
bin	0.26666666666667	0
bin	0.3	0
bin	0.33333333333333	0
bin	0.36666666666667	0
bin	0.4	0
bin	0.43333333333333	0
bin	0.46666666666667	0
bin	0.5	0
statistic demo_network.H_10.sink 	Msg-First2First-Network-Latency
field count 0
field mean nan
field stddev nan
field sum 0
field sqrsum 0
field min nan
field max nan
bin	-INF	0
bin	-0.5	0
bin	-0.46666666666667	0
bin	-0.43333333333333	0
bin	-0.4	0
bin	-0.36666666666667	0
bin	-0.33333333333333	0
bin	-0.3	0
bin	-0.26666666666667	0
bin	-0.23333333333333	0
bin	-0.2	0
bin	-0.16666666666667	0
bin	-0.13333333333333	0
bin	-0.1	0
bin	-0.066666666666667	0
bin	-0.033333333333333	0
bin	0	0
bin	0.033333333333333	0
bin	0.066666666666667	0
bin	0.1	0
bin	0.13333333333333	0
bin	0.16666666666667	0
bin	0.2	0
bin	0.23333333333333	0
bin	0.26666666666667	0
bin	0.3	0
bin	0.33333333333333	0
bin	0.36666666666667	0
bin	0.4	0
bin	0.43333333333333	0
bin	0.46666666666667	0
bin	0.5	0
statistic demo_network.H_10.sink 	Enough-Pkts-Network-Latency
field count 0
field mean nan
field stddev nan
field sum 0
field sqrsum 0
field min nan
field max nan
bin	-INF	0
bin	-0.5	0
bin	-0.46666666666667	0
bin	-0.43333333333333	0
bin	-0.4	0
bin	-0.36666666666667	0
bin	-0.33333333333333	0
bin	-0.3	0
bin	-0.26666666666667	0
bin	-0.23333333333333	0
bin	-0.2	0
bin	-0.16666666666667	0
bin	-0.13333333333333	0
bin	-0.1	0
bin	-0.066666666666667	0
bin	-0.033333333333333	0
bin	0	0
bin	0.033333333333333	0
bin	0.066666666666667	0
bin	0.1	0
bin	0.13333333333333	0
bin	0.16666666666667	0
bin	0.2	0
bin	0.23333333333333	0
bin	0.26666666666667	0
bin	0.3	0
bin	0.33333333333333	0
bin	0.36666666666667	0
bin	0.4	0
bin	0.43333333333333	0
bin	0.46666666666667	0
bin	0.5	0
statistic demo_network.H_10.sink 	Last-to-Enough-Pkt-Arrival
field count 0
field mean nan
field stddev nan
field sum 0
field sqrsum 0
field min nan
field max nan
scalar demo_network.H_10.sink 	Sink-BW-MBps 	0
scalar demo_network.H_10.sink 	VL-0-total-flits 	0
statistic demo_network.H_10.sink 	OOO-Window-Pkts
field count 0
field mean nan
field stddev nan
field sum 0
field sqrsum 0
field min nan
field max nan
scalar demo_network.H_10.sink 	OO-IO-Packets-Ratio 	nan
scalar demo_network.H_10.sink 	Num-SRCs 	0
scalar demo_network.H_10.sink 	Received-BECN 	0
statistic demo_network.H_10.obuf 	"Flits Sources"
field count 0
field mean nan
field stddev nan
field sum 0
field sqrsum 0
field min nan
field max nan
scalar demo_network.H_10.ibuf 	marknum 	0
scalar demo_network.H_10.ibuf 	Received-BECN-ibuf 	0
scalar demo_network.H_10.ibuf 	Received-FECN-ibuf 	0
scalar demo_network.H_11.gen 	"generate BECN" 	0
scalar demo_network.H_11.gen 	"first packet for RTT" 	0
scalar demo_network.H_11.sink 	"Time last packet consumed:" 	0
statistic demo_network.H_11.sink 	"Waiting time statistics"
field count 0
field mean nan
field stddev nan
field sum 0
field sqrsum 0
field min nan
field max nan
statistic demo_network.H_11.sink 	"Packet Fabric Time"
field count 0
field mean nan
field stddev nan
field sum 0
field sqrsum 0
field min nan
field max nan
bin	-INF	0
bin	0	0
bin	0.033333333333333	0
bin	0.066666666666667	0
bin	0.1	0
bin	0.13333333333333	0
bin	0.16666666666667	0
bin	0.2	0
bin	0.23333333333333	0
bin	0.26666666666667	0
bin	0.3	0
bin	0.33333333333333	0
bin	0.36666666666667	0
bin	0.4	0
bin	0.43333333333333	0
bin	0.46666666666667	0
bin	0.5	0
bin	0.53333333333333	0
bin	0.56666666666667	0
bin	0.6	0
bin	0.63333333333333	0
bin	0.66666666666667	0
bin	0.7	0
bin	0.73333333333333	0
bin	0.76666666666667	0
bin	0.8	0
bin	0.83333333333333	0
bin	0.86666666666667	0
bin	0.9	0
bin	0.93333333333333	0
bin	0.96666666666667	0
bin	1	0
statistic demo_network.H_11.sink 	Msg-Network-Latency
field count 0
field mean nan
field stddev nan
field sum 0
field sqrsum 0
field min nan
field max nan
bin	-INF	0
bin	-0.5	0
bin	-0.46666666666667	0
bin	-0.43333333333333	0
bin	-0.4	0
bin	-0.36666666666667	0
bin	-0.33333333333333	0
bin	-0.3	0
bin	-0.26666666666667	0
bin	-0.23333333333333	0
bin	-0.2	0
bin	-0.16666666666667	0
bin	-0.13333333333333	0
bin	-0.1	0
bin	-0.066666666666667	0
bin	-0.033333333333333	0
bin	0	0
bin	0.033333333333333	0
bin	0.066666666666667	0
bin	0.1	0
bin	0.13333333333333	0
bin	0.16666666666667	0
bin	0.2	0
bin	0.23333333333333	0
bin	0.26666666666667	0
bin	0.3	0
bin	0.33333333333333	0
bin	0.36666666666667	0
bin	0.4	0
bin	0.43333333333333	0
bin	0.46666666666667	0
bin	0.5	0
statistic demo_network.H_11.sink 	Msg-First2First-Network-Latency
field count 0
field mean nan
field stddev nan
field sum 0
field sqrsum 0
field min nan
field max nan
bin	-INF	0
bin	-0.5	0
bin	-0.46666666666667	0
bin	-0.43333333333333	0
bin	-0.4	0
bin	-0.36666666666667	0
bin	-0.33333333333333	0
bin	-0.3	0
bin	-0.26666666666667	0
bin	-0.23333333333333	0
bin	-0.2	0
bin	-0.16666666666667	0
bin	-0.13333333333333	0
bin	-0.1	0
bin	-0.066666666666667	0
bin	-0.033333333333333	0
bin	0	0
bin	0.033333333333333	0
bin	0.066666666666667	0
bin	0.1	0
bin	0.13333333333333	0
bin	0.16666666666667	0
bin	0.2	0
bin	0.23333333333333	0
bin	0.26666666666667	0
bin	0.3	0
bin	0.33333333333333	0
bin	0.36666666666667	0
bin	0.4	0
bin	0.43333333333333	0
bin	0.46666666666667	0
bin	0.5	0
statistic demo_network.H_11.sink 	Enough-Pkts-Network-Latency
field count 0
field mean nan
field stddev nan
field sum 0
field sqrsum 0
field min nan
field max nan
bin	-INF	0
bin	-0.5	0
bin	-0.46666666666667	0
bin	-0.43333333333333	0
bin	-0.4	0
bin	-0.36666666666667	0
bin	-0.33333333333333	0
bin	-0.3	0
bin	-0.26666666666667	0
bin	-0.23333333333333	0
bin	-0.2	0
bin	-0.16666666666667	0
bin	-0.13333333333333	0
bin	-0.1	0
bin	-0.066666666666667	0
bin	-0.033333333333333	0
bin	0	0
bin	0.033333333333333	0
bin	0.066666666666667	0
bin	0.1	0
bin	0.13333333333333	0
bin	0.16666666666667	0
bin	0.2	0
bin	0.23333333333333	0
bin	0.26666666666667	0
bin	0.3	0
bin	0.33333333333333	0
bin	0.36666666666667	0
bin	0.4	0
bin	0.43333333333333	0
bin	0.46666666666667	0
bin	0.5	0
statistic demo_network.H_11.sink 	Last-to-Enough-Pkt-Arrival
field count 0
field mean nan
field stddev nan
field sum 0
field sqrsum 0
field min nan
field max nan
scalar demo_network.H_11.sink 	Sink-BW-MBps 	0
scalar demo_network.H_11.sink 	VL-0-total-flits 	0
statistic demo_network.H_11.sink 	OOO-Window-Pkts
field count 0
field mean nan
field stddev nan
field sum 0
field sqrsum 0
field min nan
field max nan
scalar demo_network.H_11.sink 	OO-IO-Packets-Ratio 	nan
scalar demo_network.H_11.sink 	Num-SRCs 	0
scalar demo_network.H_11.sink 	Received-BECN 	0
statistic demo_network.H_11.obuf 	"Flits Sources"
field count 0
field mean nan
field stddev nan
field sum 0
field sqrsum 0
field min nan
field max nan
scalar demo_network.H_11.ibuf 	marknum 	0
scalar demo_network.H_11.ibuf 	Received-BECN-ibuf 	0
scalar demo_network.H_11.ibuf 	Received-FECN-ibuf 	0
statistic demo_network.SW_1.port[0].obuf 	"Flits Sources"
field count 0
field mean nan
field stddev nan
field sum 0
field sqrsum 0
field min nan
field max nan
scalar demo_network.SW_1.port[0].ibuf 	marknum 	0
scalar demo_network.SW_1.port[0].ibuf 	Received-BECN-ibuf 	0
scalar demo_network.SW_1.port[0].ibuf 	Received-FECN-ibuf 	0
statistic demo_network.SW_1.port[1].obuf 	"Flits Sources"
field count 3063
field mean 5
field stddev 0
field sum 15315
field sqrsum 76575
field min 5
field max 5
scalar demo_network.SW_1.port[1].ibuf 	marknum 	0
scalar demo_network.SW_1.port[1].ibuf 	Received-BECN-ibuf 	0
scalar demo_network.SW_1.port[1].ibuf 	Received-FECN-ibuf 	7734
statistic demo_network.SW_1.port[2].obuf 	"Flits Sources"
field count 0
field mean nan
field stddev nan
field sum 0
field sqrsum 0
field min nan
field max nan
scalar demo_network.SW_1.port[2].ibuf 	marknum 	0
scalar demo_network.SW_1.port[2].ibuf 	Received-BECN-ibuf 	0
scalar demo_network.SW_1.port[2].ibuf 	Received-FECN-ibuf 	0
statistic demo_network.SW_1.port[3].obuf 	"Flits Sources"
field count 58564
field mean 4.4054538624411
field stddev 2.1725802196524
field sum 258001
field sqrsum 1413035
field min 1
field max 6
scalar demo_network.SW_1.port[3].ibuf 	marknum 	0
scalar demo_network.SW_1.port[3].ibuf 	Received-BECN-ibuf 	5500
scalar demo_network.SW_1.port[3].ibuf 	Received-FECN-ibuf 	0
statistic demo_network.SW_1.port[4].obuf 	"Flits Sources"
field count 2437
field mean 5
field stddev 0
field sum 12185
field sqrsum 60925
field min 5
field max 5
scalar demo_network.SW_1.port[4].ibuf 	marknum 	0
scalar demo_network.SW_1.port[4].ibuf 	Received-BECN-ibuf 	0
scalar demo_network.SW_1.port[4].ibuf 	Received-FECN-ibuf 	0
statistic demo_network.SW_1.port[5].obuf 	"Flits Sources"
field count 0
field mean nan
field stddev nan
field sum 0
field sqrsum 0
field min nan
field max nan
scalar demo_network.SW_1.port[5].ibuf 	marknum 	0
scalar demo_network.SW_1.port[5].ibuf 	Received-BECN-ibuf 	0
scalar demo_network.SW_1.port[5].ibuf 	Received-FECN-ibuf 	0
statistic demo_network.SW_1.port[6].obuf 	"Flits Sources"
field count 0
field mean nan
field stddev nan
field sum 0
field sqrsum 0
field min nan
field max nan
scalar demo_network.SW_1.port[6].ibuf 	marknum 	0
scalar demo_network.SW_1.port[6].ibuf 	Received-BECN-ibuf 	0
scalar demo_network.SW_1.port[6].ibuf 	Received-FECN-ibuf 	0
statistic demo_network.SW_1.port[7].obuf 	"Flits Sources"
field count 0
field mean nan
field stddev nan
field sum 0
field sqrsum 0
field min nan
field max nan
scalar demo_network.SW_1.port[7].ibuf 	marknum 	0
scalar demo_network.SW_1.port[7].ibuf 	Received-BECN-ibuf 	0
scalar demo_network.SW_1.port[7].ibuf 	Received-FECN-ibuf 	0
statistic demo_network.SW_1.port[8].obuf 	"Flits Sources"
field count 0
field mean nan
field stddev nan
field sum 0
field sqrsum 0
field min nan
field max nan
scalar demo_network.SW_1.port[8].ibuf 	marknum 	0
scalar demo_network.SW_1.port[8].ibuf 	Received-BECN-ibuf 	0
scalar demo_network.SW_1.port[8].ibuf 	Received-FECN-ibuf 	0
statistic demo_network.SW_1.port[9].obuf 	"Flits Sources"
field count 0
field mean nan
field stddev nan
field sum 0
field sqrsum 0
field min nan
field max nan
scalar demo_network.SW_1.port[9].ibuf 	marknum 	0
scalar demo_network.SW_1.port[9].ibuf 	Received-BECN-ibuf 	0
scalar demo_network.SW_1.port[9].ibuf 	Received-FECN-ibuf 	0
statistic demo_network.SW_2.port[0].obuf 	"Flits Sources"
field count 1527
field mean 5
field stddev 0
field sum 7635
field sqrsum 38175
field min 5
field max 5
scalar demo_network.SW_2.port[0].ibuf 	marknum 	0
scalar demo_network.SW_2.port[0].ibuf 	Received-BECN-ibuf 	0
scalar demo_network.SW_2.port[0].ibuf 	Received-FECN-ibuf 	0
statistic demo_network.SW_2.port[1].obuf 	"Flits Sources"
field count 1536
field mean 5
field stddev 0
field sum 7680
field sqrsum 38400
field min 5
field max 5
scalar demo_network.SW_2.port[1].ibuf 	marknum 	0
scalar demo_network.SW_2.port[1].ibuf 	Received-BECN-ibuf 	0
scalar demo_network.SW_2.port[1].ibuf 	Received-FECN-ibuf 	0
statistic demo_network.SW_2.port[2].obuf 	"Flits Sources"
field count 20756
field mean 1.5009153979572
field stddev 0.5000112071709
field sum 31153
field sqrsum 51947
field min 1
field max 2
scalar demo_network.SW_2.port[2].ibuf 	marknum 	0
scalar demo_network.SW_2.port[2].ibuf 	Received-BECN-ibuf 	3063
scalar demo_network.SW_2.port[2].ibuf 	Received-FECN-ibuf 	0
