version 2
run General-0-20200116-14:31:51-8496
attr configname General
attr datetime 20200116-14:31:51
attr experiment General
attr inifile fat-tree.ini
attr iterationvars ""
attr iterationvars2 $repetition=0
attr measurement ""
attr network ib_model.examples.evaluation_fattree64.fattree_64_network
attr processid 8496
attr repetition 0
attr replication #0
attr resultdir results
attr runnumber 0
attr seedset 0
param **.**servers[*].obuf.size 5
param **.**servers[*].vlarb.busWidth 16B
param **.**servers[*].vlarb.coreFreq 1000MHz
param **.**switches[*]**.fdbsVecFile "\"fat_tree_64.fdbs\""
param **.**switches[*].**.obuf.size 4
param **.**switches[*].**.vlarb.busWidth 24B
param **.**switches[*].**.vlarb.coreFreq 1200MHz
param **.**switches[*].port[*].ibuf.maxStatic* 32
param **.CCT_Timer 25us
param **.ISWDelay 50ns
param **.L1_switches[0]**.fdbIndex 0
param **.L1_switches[10]**.fdbIndex 10
param **.L1_switches[11]**.fdbIndex 11
param **.L1_switches[12]**.fdbIndex 12
param **.L1_switches[13]**.fdbIndex 13
param **.L1_switches[14]**.fdbIndex 14
param **.L1_switches[15]**.fdbIndex 15
param **.L1_switches[1]**.fdbIndex 1
param **.L1_switches[2]**.fdbIndex 2
param **.L1_switches[3]**.fdbIndex 3
param **.L1_switches[4]**.fdbIndex 4
param **.L1_switches[5]**.fdbIndex 5
param **.L1_switches[6]**.fdbIndex 6
param **.L1_switches[7]**.fdbIndex 7
param **.L1_switches[8]**.fdbIndex 8
param **.L1_switches[9]**.fdbIndex 9
param **.L2_switches[0]**.fdbIndex 16
param **.L2_switches[10]**.fdbIndex 26
param **.L2_switches[11]**.fdbIndex 27
param **.L2_switches[12]**.fdbIndex 28
param **.L2_switches[13]**.fdbIndex 29
param **.L2_switches[14]**.fdbIndex 30
param **.L2_switches[15]**.fdbIndex 31
param **.L2_switches[1]**.fdbIndex 17
param **.L2_switches[2]**.fdbIndex 18
param **.L2_switches[3]**.fdbIndex 19
param **.L2_switches[4]**.fdbIndex 20
param **.L2_switches[5]**.fdbIndex 21
param **.L2_switches[6]**.fdbIndex 22
param **.L2_switches[7]**.fdbIndex 23
param **.L2_switches[8]**.fdbIndex 24
param **.L2_switches[9]**.fdbIndex 25
param **.L3_switches[0]**.fdbIndex 32
param **.L3_switches[10]**.fdbIndex 42
param **.L3_switches[11]**.fdbIndex 43
param **.L3_switches[12]**.fdbIndex 44
param **.L3_switches[13]**.fdbIndex 45
param **.L3_switches[14]**.fdbIndex 46
param **.L3_switches[15]**.fdbIndex 47
param **.L3_switches[1]**.fdbIndex 33
param **.L3_switches[2]**.fdbIndex 34
param **.L3_switches[3]**.fdbIndex 35
param **.L3_switches[4]**.fdbIndex 36
param **.L3_switches[5]**.fdbIndex 37
param **.L3_switches[6]**.fdbIndex 38
param **.L3_switches[7]**.fdbIndex 39
param **.L3_switches[8]**.fdbIndex 40
param **.L3_switches[9]**.fdbIndex 41
param **.VSWDelay 50ns
param **.app.dstSeqVecFile "\"\""
param **.app.dstSeqVecIdx 0
param **.dstMode "\"param\""
param **.flit2FlitGap 0.001ns
param **.flitSize 2048B
param **.genDlyPerByte 0.25ns
param **.ibuf.lossyMode false
param **.maxContPkts 10
param **.maxQueuedPerVL 10
param **.maxVL 0
param **.msgLenMode "\"param\""
param **.msgLenProb "\"1 1 1 1\""
param **.msgLenSet "\"4096 4096 4096\""
param **.msgMtuLen 2048B
param **.msgSQ 0
param **.obuf.credMinTime 4.096us
param **.obuf.width 4
param **.pkt2PktGap 0.001ns
param **.pktFwdType "\"Pktfwd\""
param **.pktfwd.ARAdaptThd 4
param **.pktfwd.AdaptMode "\"none\""
param **.pktfwd.GreedyRandSize 3
param **.pktfwd.LIDBindTime 2us
param **.pktfwd.OPSelAlgo "\"greedy\""
param **.pktfwd.OPSelOffsetByDLID 0
param **.pktfwd.TQBusy1Thd 20
param **.pktfwd.TQBusy2Thd 40
param **.pktfwd.TQBusy3Thd 80
param **.pktfwd.statRepTime 10us
param **.popDlyPerByte 0.25ns
param **.servers[*].app.msgNum 1
param **.servers[0].**.on_cc 1
param **.servers[0].**.on_throughput_obuf 1
param **.servers[0].app.dstLid 5
param **.servers[0].srcLid 1
param **.servers[10].srcLid 11
param **.servers[11].srcLid 12
param **.servers[12].**.endTime 0.006
param **.servers[12].**.on_throughput_obuf 1
param **.servers[12].**.startTime 0.005
param **.servers[12].app.dstLid 29
param **.servers[12].app.msg2msgGap 4000ns
param **.servers[12].app.msgLength 4096B
param **.servers[12].srcLid 13
param **.servers[