version 2
run General-0-20200116-14:31:51-8496
attr configname General
attr datetime 20200116-14:31:51
attr experiment General
attr inifile fat-tree.ini
attr iterationvars ""
attr iterationvars2 $repetition=0
attr measurement ""
attr network ib_model.examples.evaluation_fattree64.fattree_64_network
attr processid 8496
attr repetition 0
attr replication #0
attr resultdir results
attr runnumber 0
attr seedset 0
param **.**servers[*].obuf.size 5
param **.**servers[*].vlarb.busWidth 16B
param **.**servers[*].vlarb.coreFreq 1000MHz
param **.**switches[*]**.fdbsVecFile "\"fat_tree_64.fdbs\""
param **.**switches[*].**.obuf.size 4
param **.**switches[*].**.vlarb.busWidth 24B
param **.**switches[*].**.vlarb.coreFreq 1200MHz
param **.**switches[*].port[*].ibuf.maxStatic* 32
param **.CCT_Timer 25us
param **.ISWDelay 50ns
param **.L1_switches[0]**.fdbIndex 0
param **.L1_switches[10]**.fdbIndex 10
param **.L1_switches[11]**.fdbIndex 11
param **.L1_switches[12]**.fdbIndex 12
param **.L1_switches[13]**.fdbIndex 13
param **.L1_switches[14]**.fdbIndex 14
param **.L1_switches[15]**.fdbIndex 15
param **.L1_switches[1]**.fdbIndex 1
param **.L1_switches[2]**.fdbIndex 2
param **.L1_switches[3]**.fdbIndex 3
param **.L1_switches[4]**.fdbIndex 4
param **.L1_switches[5]**.fdbIndex 5
param **.L1_switches[6]**.fdbIndex 6
param **.L1_switches[7]**.fdbIndex 7
param **.L1_switches[8]**.fdbIndex 8
param **.L1_switches[9]**.fdbIndex 9
param **.L2_switches[0]**.fdbIndex 16
param **.L2_switches[10]**.fdbIndex 26
param **.L2_switches[11]**.fdbIndex 27
param **.L2_switches[12]**.fdbIndex 28
param **.L2_switches[13]**.fdbIndex 29
param **.L2_switches[14]**.fdbIndex 30
param **.L2_switches[15]**.fdbIndex 31
param **.L2_switches[1]**.fdbIndex 17
param **.L2_switches[2]**.fdbIndex 18
param **.L2_switches[3]**.fdbIndex 19
param **.L2_switches[4]**.fdbIndex 20
param **.L2_switches[5]**.fdbIndex 21
param **.L2_switches[6]**.fdbIndex 22
param **.L2_switches[7]**.fdbIndex 23
param **.L2_switches[8]**.fdbIndex 24
param **.L2_switches[9]**.fdbIndex 25
param **.L3_switches[0]**.fdbIndex 32
param **.L3_switches[10]**.fdbIndex 42
param **.L3_switches[11]**.fdbIndex 43
param **.L3_switches[12]**.fdbIndex 44
param **.L3_switches[13]**.fdbIndex 45
param **.L3_switches[14]**.fdbIndex 46
param **.L3_switches[15]**.fdbIndex 47
param **.L3_switches[1]**.fdbIndex 33
param **.L3_switches[2]**.fdbIndex 34
param **.L3_switches[3]**.fdbIndex 35
param **.L3_switches[4]**.fdbIndex 36
param **.L3_switches[5]**.fdbIndex 37
param **.L3_switches[6]**.fdbIndex 38
param **.L3_switches[7]**.fdbIndex 39
param **.L3_switches[8]**.fdbIndex 40
param **.L3_switches[9]**.fdbIndex 41
param **.VSWDelay 50ns
param **.app.dstSeqVecFile "\"\""
param **.app.dstSeqVecIdx 0
param **.dstMode "\"param\""
param **.flit2FlitGap 0.001ns
param **.flitSize 2048B
param **.genDlyPerByte 0.25ns
param **.ibuf.lossyMode false
param **.maxContPkts 10
param **.maxQueuedPerVL 10
param **.maxVL 0
param **.msgLenMode "\"param\""
param **.msgLenProb "\"1 1 1 1\""
param **.msgLenSet "\"4096 4096 4096\""
param **.msgMtuLen 2048B
param **.msgSQ 0
param **.obuf.credMinTime 4.096us
param **.obuf.width 4
param **.pkt2PktGap 0.001ns
param **.pktFwdType "\"Pktfwd\""
param **.pktfwd.ARAdaptThd 4
param **.pktfwd.AdaptMode "\"none\""
param **.pktfwd.GreedyRandSize 3
param **.pktfwd.LIDBindTime 2us
param **.pktfwd.OPSelAlgo "\"greedy\""
param **.pktfwd.OPSelOffsetByDLID 0
param **.pktfwd.TQBusy1Thd 20
param **.pktfwd.TQBusy2Thd 40
param **.pktfwd.TQBusy3Thd 80
param **.pktfwd.statRepTime 10us
param **.popDlyPerByte 0.25ns
param **.servers[*].app.msgNum 1
param **.servers[0].**.on_cc 1
param **.servers[0].**.on_throughput_obuf 1
param **.servers[0].app.dstLid 5
param **.servers[0].srcLid 1
param **.servers[10].srcLid 11
param **.servers[11].srcLid 12
param **.servers[12].**.endTime 0.006
param **.servers[12].**.on_throughput_obuf 1
param **.servers[12].**.startTime 0.005
param **.servers[12].app.dstLid 29
param **.servers[12].app.msg2msgGap 4000ns
param **.servers[12].app.msgLength 4096B
param **.servers[12].srcLid 13
param **.servers[13].srcLid 14
param **.servers[14].srcLid 15
param **.servers[15].srcLid 16
param **.servers[16].**.on_cc 1
param **.servers[16].srcLid 17
param **.servers[17].srcLid 18
param **.servers[18].srcLid 19
param **.servers[19].srcLid 20
param **.servers[1].**.on_cc 1
param **.servers[1].**.on_throughput_gen 1
param **.servers[1].**.on_throughput_obuf 1
param **.servers[1].app.dstLid 17
param **.servers[1].srcLid 2
param **.servers[20].srcLid 21
param **.servers[21].srcLid 22
param **.servers[22].srcLid 23
param **.servers[23].srcLid 24
param **.servers[24].srcLid 25
param **.servers[25].srcLid 26
param **.servers[26].srcLid 27
param **.servers[27].srcLid 28
param **.servers[28].srcLid 29
param **.servers[29].srcLid 30
param **.servers[2].srcLid 3
param **.servers[30].srcLid 31
param **.servers[31].srcLid 32
param **.servers[32].srcLid 33
param **.servers[33].srcLid 34
param **.servers[34].srcLid 35
param **.servers[35].srcLid 36
param **.servers[36].srcLid 37
param **.servers[37].srcLid 38
param **.servers[38].srcLid 39
param **.servers[39].srcLid 40
param **.servers[3].srcLid 4
param **.servers[40].srcLid 41
param **.servers[41].srcLid 42
param **.servers[42].srcLid 43
param **.servers[43].srcLid 44
param **.servers[44].srcLid 45
param **.servers[45].srcLid 46
param **.servers[46].srcLid 47
param **.servers[47].srcLid 48
param **.servers[48].srcLid 49
param **.servers[49].srcLid 50
param **.servers[4].**.on_cc 1
param **.servers[4].srcLid 5
param **.servers[50].srcLid 51
param **.servers[51].srcLid 52
param **.servers[52].srcLid 53
param **.servers[53].srcLid 54
param **.servers[54].srcLid 55
param **.servers[55].srcLid 56
param **.servers[56].srcLid 57
param **.servers[57].srcLid 58
param **.servers[58].srcLid 59
param **.servers[59].srcLid 60
param **.servers[5].**.endTime 0.006
param **.servers[5].**.on_throughput_obuf 1
param **.servers[5].**.startTime 0.005
param **.servers[5].app.dstLid 25
param **.servers[5].app.msg2msgGap 4000ns
param **.servers[5].app.msgLength 4096B
param **.servers[5].srcLid 6
param **.servers[60].srcLid 61
param **.servers[61].srcLid 62
param **.servers[62].srcLid 63
param **.servers[63].srcLid 64
param **.servers[6].srcLid 7
param **.servers[7].srcLid 8
param **.servers[8].srcLid 9
param **.servers[9].**.endTime 0.006
param **.servers[9].**.on_throughput_obuf 1
param **.servers[9].**.startTime 0.005
param **.servers[9].app.dstLid 21
param **.servers[9].app.msg2msgGap 4000ns
param **.servers[9].app.msgLength 4096B
param **.servers[9].srcLid 10
param **.sink.hiccupDelay 10000us
param **.sink.hiccupDuration 0.001us
param **.sink.repFirstPackets 0
param **.speed 10Gbps
param **.startStatCol 100us
param **.timeStep_us 50us
param **.vlarb.highVLArbEntries "\"0:1 1:20 2:40 3:80\""
param **.vlarb.lowVLArbEntries "\"0:1 1:20 2:40 3:80\""
param **.vlarb.markrate 3
param **.vlarb.useFCFSRQArb false
param **.vlarb.vlHighLimit 16
param **.vlarb.width 4
param **.width 4
param **H_**.obuf.size 5
param **H_**.vlarb.busWidth 16B
param **H_**.vlarb.coreFreq 1000MHz
param **SW**.vlarb.busWidth 24B
param **SW**.vlarb.coreFreq 1200MHz
param **ibuf.maxBeingSent 1
param **ibuf.totalBufferSize 1000
param **servers[*]**.ibuf.maxStatic* 32

vector 1  fattree_64_network.servers[0].app  msgInfo  ETV
vector 26  fattree_64_network.servers[1].app  msgInfo  ETV
vector 2  fattree_64_network.servers[0].gen  CCT_Index  ETV
vector 27  fattree_64_network.servers[1].gen  CCT_Index  ETV
vector 1616  fattree_64_network.L1_switches[0].port[1].ibuf  inputQueueLength  ETV
vector 3140  fattree_64_network.L2_switches[0].port[0].ibuf  inputQueueLength  ETV
vector 4676  fattree_64_network.L3_switches[0].port[0].ibuf  inputQueueLength  ETV
vector 3572  fattree_64_network.L2_switches[4].port[4].ibuf  inputQueueLength  ETV
vector 2036  fattree_64_network.L1_switches[4].port[4].ibuf  inputQueueLength  ETV
vector 409  fattree_64_network.servers[16].sink  "Received Rate"  ETV
vector 112  fattree_64_network.servers[4].sink  "sink throughput"  ETV
vector 412  fattree_64_network.servers[16].sink  "sink throughput"  ETV
vector 28  fattree_64_network.s